  **********************************************************
                     Welcome to XBeach
 
              version 1.22.Unversioned directory Kingsday release
              date Fri Feb 10 15:32:58 PST 2017
    URL:
  **********************************************************
 
  Simulation started: YYYYMMDD    hh:mm:ss     time zone (UTC)
                      20180530  20:14:40     -0700
 
   running in: /home/server/pi/homes/aellenso/Research/XBeach/runs/FRF_TestCase/jonswap/p960/facua0.2
  General Input Module
  Reading input parameters:
  --------------------------------
  Physical processes:
  XBeach reading from params.txt
                  cyclic  = 0 (no record found, default value used)
                   swave  = 1 (no record found, default value used)
              single_dir  = 0 (no record found, default value used)
                   lwave  = 1 (no record found, default value used)
                    flow  = 1 (no record found, default value used)
                sedtrans  = 1 (no record found, default value used)
              morphology  = 1
             avalanching  = 1 (no record found, default value used)
                    nonh  = 0 (no record found, default value used)
                  gwflow  = 0 (no record found, default value used)
                   ships  = 0 (no record found, default value used)
              vegetation  = 0 (no record found, default value used)
                setbathy  = 0 (no record found, default value used)
  --------------------------------
  Grid parameters:
                gridform  = xbeach (no record found, default value used)
                    xori  = .0000
                    yori  = .0000
                    alfa  = .0000
                      nx  = 209
                      ny  = 0
                  posdwn  = .0000
                 depfile  = bed.dep
                   vardx  = 1
                      dx  = -1.0000 (no record found, default value used)
                      dy  = -1.0000 (no record found, default value used)
                   xfile  = x.grd
                   yfile  = y.grd
                thetamin  = .0000
                thetamax  = 360.0000 Warning: value > recommended value of 180.0000
               thetanaut  = 1
                  dtheta  = 360.0000 Warning: value > recommended value of 20.0000
  --------------------------------
  Model time parameters:
                     CFL  = .7000 (no record found, default value used)
                   tstop  = 120960.0000
  --------------------------------
  Physical constants:
                     rho  = 1025.0000 (no record found, default value used)
                       g  = 9.8100 (no record found, default value used)
              depthscale  = 1.0000 (no record found, default value used)
  --------------------------------
  Initial conditions:
              zsinitfile  = None specified
  --------------------------------
  Wave boundary condition parameters:
                  instat  = jons
                  bcfile  = jonswap.txt
                   taper  = 100.0000 (no record found, default value used)
                    nmax  = .8000 (no record found, default value used)
             lateralwave  = neumann (no record found, default value used)
  --------------------------------
  Wave-spectrum boundary condition parameters:
            nonhspectrum  = 0 (no record found, default value used)
                  random  = 0
                 fcutoff  = .0000 (no record found, default value used)
                 trepfac  = .0100 (no record found, default value used)
                 sprdthr  = .0800 (no record found, default value used)
              Tm01switch  = 0 (no record found, default value used)
                      rt  = 120960.0000 Warning: value > recommended value of 7200.0000
                    dtbc  = 1.0000
            nspectrumloc  = 1 (no record found, default value used)
  --------------------------------
  Flow boundary condition parameters:
                   front  = abs_2d (no record found, default value used)
                    left  = neumann (no record found, default value used)
                   right  = neumann (no record found, default value used)
                    back  = abs_2d (no record found, default value used)
                     ARC  = 1 (no record found, default value used)
                   order  = 2.0000 (no record found, default value used)
                 carspan  = 0 (no record found, default value used)
                freewave  = 0 (no record found, default value used)
                    epsi  = -1.0000 (no record found, default value used)
                tidetype  = velocity (no record found, default value used)
  --------------------------------
  Tide boundary conditions:
                 tideloc  = 0 (no record found, default value used)
                     zs0  = .0000
  --------------------------------
  Discharge boundary conditions:
          disch_loc_file  = None specified
   disch_timeseries_file  = None specified
              ndischarge  = 0 (no record found, default value used)
             ntdischarge  = 0 (no record found, default value used)
                    beta  = .1000 (no record found, default value used)
  --------------------------------
  Wave breaking parameters:
                   break  = roelvink2 (no record found, default value used)
                   gamma  = .5500 (no record found, default value used)
                   alpha  = 1.0000 (no record found, default value used)
                       n  = 10.0000 (no record found, default value used)
                  gammax  = 2.0000 (no record found, default value used)
                   delta  = .0000 (no record found, default value used)
                      fw  = .0000 (no record found, default value used)
                fwcutoff  = 1000.0000 (no record found, default value used)
            breakerdelay  = 1 (no record found, default value used)
  --------------------------------
  Roller parameters:
                  roller  = 1 (no record found, default value used)
                     rfb  = 0 (no record found, default value used)
  --------------------------------
  Wave-current interaction parameters:
                     wci  = 0 (no record found, default value used)
                    hwci  = .1000 (no record found, default value used)
                    cats  = 4.0000 (no record found, default value used)
  --------------------------------
  Flow parameters:
             bedfriction  = chezy (no record found, default value used)
             bedfriccoef  = 55.0000 (no record found, default value used)
                     nuh  = .1000 (no record found, default value used)
                  nuhfac  = 1.0000 (no record found, default value used)
                    smag  = 1 (no record found, default value used)
  --------------------------------
  Coriolis force parameters:
                  wearth  = .0417 (no record found, default value used)
                     lat  = .0000 (no record found, default value used)
  --------------------------------
  Wind parameters:
                    rhoa  = 1.2500 (no record found, default value used)
                      Cd  = .0020 (no record found, default value used)
                windfile  = None specified
                   windv  = .0000 (no record found, default value used)
                  windth  = 270.0000 (no record found, default value used)
  --------------------------------
  Sediment transport parameters:
                    form  = vanthiel_vanrijn (no record found, default value used)
                waveform  = vanthiel (no record found, default value used)
                     sws  = 1 (no record found, default value used)
                     lws  = 1 (no record found, default value used)
                   BRfac  = 1.0000 (no record found, default value used)
                   facsl  = 1.6000 (no record found, default value used)
                      z0  = .0060 (no record found, default value used)
                    smax  = -1.0000 (no record found, default value used)
                   tsfac  = .1000 (no record found, default value used)
                   facua  = .2000
                   facSk  = .2000 (no record found, default value used)
                   facAs  = .2000 (no record found, default value used)
                 turbadv  = none (no record found, default value used)
                    turb  = bore_averaged (no record found, default value used)
                   Tbfac  = 1.0000 (no record found, default value used)
                   Tsmin  = .5000 (no record found, default value used)
                     lwt  = 0 (no record found, default value used)
                   betad  = 1.0000 (no record found, default value used)
                     sus  = 1 (no record found, default value used)
                     bed  = 1 (no record found, default value used)
                    bulk  = 0 (no record found, default value used)
                   facDc  = 1.0000 (no record found, default value used)
              fallvelred  = 0 (no record found, default value used)
               dilatancy  = 0 (no record found, default value used)
             reposeangle  = 30.0000 (no record found, default value used)
             bdslpeffmag  = roelvink_total (no record found, default value used)
             bdslpeffini  = none (no record found, default value used)
             bdslpeffdir  = none (no record found, default value used)
  --------------------------------
  Bed composition parameters:
                     ngd  = 1 (no record found, default value used)
                      nd  = 3 (no record found, default value used)
                     por  = .4000 (no record found, default value used)
  D50  = .0002 (no record found, default value used)
  D90  = .0003 (no record found, default value used)
                    rhos  = 2650.0000 (no record found, default value used)
                     dzg  = .1000 (no record found, default value used)
                    dzg1  = .1000 (no record found, default value used)
                    dzg2  = .1000 (no record found, default value used)
                    dzg3  = .1000 (no record found, default value used)
  sedcal  = 1.0000 (no record found, default value used)
  ucrcal  = 1.0000 (no record found, default value used)
  --------------------------------
  Morphology parameters:
                  morfac  = 10.0000
               morfacopt  = 1 (no record found, default value used)
                morstart  = 120.0000 (no record found, default value used)
                 morstop  = 120960.0000 (no record found, default value used)
                  wetslp  = .3000 (no record found, default value used)
                  dryslp  = 1.0000 (no record found, default value used)
                 hswitch  = .1000 (no record found, default value used)
                   dzmax  = .0500 (no record found, default value used)
                  struct  = 0 (no record found, default value used)
  --------------------------------
  Output variables:
                 timings  = 1 (no record found, default value used)
                  tunits  = None specified
                  tstart  = .0000
                    tint  = 1.0000 (no record found, default value used)
                tsglobal  = None specified
                   tintg  = 500.0000
                tspoints  = None specified
                   tintp  = 1.0000 (no record found, default value used)
                  tsmean  = None specified
                   tintm  = 1080.0000
              nglobalvar  = 10
  nglobalvar: Will generate global output for variable:zb
  nglobalvar: Will generate global output for variable:As
  nglobalvar: Will generate global output for variable:Sk
  nglobalvar: Will generate global output for variable:H
  nglobalvar: Will generate global output for variable:ua
  nglobalvar: Will generate global output for variable:u
  nglobalvar: Will generate global output for variable:ue
  nglobalvar: Will generate global output for variable:Susg
  nglobalvar: Will generate global output for variable:Subg
  nglobalvar: Will generate global output for variable:Sutot
                 npoints  = 2
                nrugauge  = 0 (no record found, default value used)
               npointvar  = 2
  Output pointoffshore xpoint: .00   ypoint: .00
  Output pointbar xpoint: 500.00   ypoint: .00
  npointvar: Will generate point output for variable:zs
  npointvar: Will generate point output for variable:H
  Order of point output variables stored in 'pointvars.idx'
               nrugdepth  = 1 (no record found, default value used)
  rugdepth  = .0000 (no record found, default value used)
                nmeanvar  = 10
  nmeanvar: Will generate mean, min, max and variance output for variable:As
  nmeanvar: Will generate mean, min, max and variance output for variable:Sk
  nmeanvar: Will generate mean, min, max and variance output for variable:zb
  nmeanvar: Will generate mean, min, max and variance output for variable:H
  nmeanvar: Will generate mean, min, max and variance output for variable:ua
  nmeanvar: Will generate mean, min, max and variance output for variable:u
  nmeanvar: Will generate mean, min, max and variance output for variable:ue
  nmeanvar: Will generate mean, min, max and variance output for variable:Susg
  nmeanvar: Will generate mean, min, max and variance output for variable:Subg
  nmeanvar: Will generate mean, min, max and variance output for variable:Sutot
            outputformat  = netcdf
         outputprecision  = double (no record found, default value used)
              ncfilename  = None specified
  netcdf output to:xboutput.nc
  --------------------------------
  Output projection:
              projection  = None specified
                  rotate  = 1 (no record found, default value used)
  --------------------------------
  Wave numerics parameters:
                  scheme  = upwind_2 (no record found, default value used)
                  snells  = 1 (no record found, default value used)
  --------------------------------
  Flow numerics parameters:
                     eps  = .0050 (no record found, default value used)
                  eps_sd  = .5000 (no record found, default value used)
                    umin  = .0000 (no record found, default value used)
                    hmin  = .2000 (no record found, default value used)
                secorder  = 0 (no record found, default value used)
  --------------------------------
  Sediment transport numerics parameters:
                thetanum  = 1.0000 (no record found, default value used)
              sourcesink  = 0 (no record found, default value used)
                    cmax  = .1000 (no record found, default value used)
  --------------------------------
  Bed update numerics parameters:
                 frac_dz  = .7000 (no record found, default value used)
                  nd_var  = 2 (no record found, default value used)
                   split  = 1.0100 (no record found, default value used)
                   merge  = .0100 (no record found, default value used)
  --------------------------------
  Finished reading input parameters
  --------------------------------
  Warning: 2D absorbing boundary condition [front=abs_2d] reduces to a
           1D absorbing boundary condition [front=abs_1d] in
           1D mode [ny=0]
  Warning: 2D absorbing boundary condition [back=abs_2d] reduces to a
           1D absorbing boundary condition [back=abs_1d] in
           1D mode [ny=0]
  ------------------------------------
  Building Grid and Bathymetry
  ------------------------------------
  Initializing .....
  --------------------------------
  Initializing spectral wave boundary conditions
  --------------------------------
 Distance output point001(.00,.00) to gridpoint(1,1): 61.03 m
 Distance output point002(500.00,.00) to gridpoint(149,1): .05 m
  NetCDF outputformat
  Creating netcdf variable: zb
  Creating netcdf variable: As
  Creating netcdf variable: Sk
  Creating netcdf variable: H
  Creating netcdf variable: ua
  Creating netcdf variable: u
  Creating netcdf variable: ue
  Creating netcdf variable: Susg
  Creating netcdf variable: Subg
  Creating netcdf variable: Sutot
  Creating netcdf variable: point_zs
  Creating netcdf variable: point_H
  Creating netcdf variable: As_mean
  Creating netcdf variable: As_var
  Creating netcdf variable: As_min
  Creating netcdf variable: As_max
  Creating netcdf variable: Sk_mean
  Creating netcdf variable: Sk_var
  Creating netcdf variable: Sk_min
  Creating netcdf variable: Sk_max
  Creating netcdf variable: zb_mean
  Creating netcdf variable: zb_var
  Creating netcdf variable: zb_min
  Creating netcdf variable: zb_max
  Creating netcdf variable: H_mean
  Creating netcdf variable: H_var
  Creating netcdf variable: H_min
  Creating netcdf variable: H_max
  Creating netcdf variable: ua_mean
  Creating netcdf variable: ua_var
  Creating netcdf variable: ua_min
  Creating netcdf variable: ua_max
  Creating netcdf variable: u_mean
  Creating netcdf variable: u_var
  Creating netcdf variable: u_min
  Creating netcdf variable: u_max
  Creating netcdf variable: ue_mean
  Creating netcdf variable: ue_var
  Creating netcdf variable: ue_min
  Creating netcdf variable: ue_max
  Creating netcdf variable: Susg_mean
  Creating netcdf variable: Susg_var
  Creating netcdf variable: Susg_min
  Creating netcdf variable: Susg_max
  Creating netcdf variable: Subg_mean
  Creating netcdf variable: Subg_var
  Creating netcdf variable: Subg_min
  Creating netcdf variable: Subg_max
  Creating netcdf variable: Sutot_mean
  Creating netcdf variable: Sutot_var
  Creating netcdf variable: Sutot_min
  Creating netcdf variable: Sutot_max
  Writing file definition.
  Writing point vars.
  Setting up boundary conditions
  --------------------------------
  Calculating spectral wave boundary conditions
  --------------------------------
 Reading spectrum at location 1
  waveparams: Reading from jonswap.txt ...
  XBeach reading from jonswap.txt
                  nmodal  = 1 (no record found, default value used)
                     Hm0  = .7000
                      fp  = .1000
                gammajsp  = 3.3000
                       s  = 20.0000
                 mainang  = 278.0000
                    fnyq  = 1.0000
                     dfj  = .0050 (no record found, default value used)
 Interpreting spectrum at location 1
  Values calculated from interpolated spectrum:
 Hm0       = .70 m
 Trep      = 9.15 s
 Mean dir  = 278.25 degN
 Overall Trep from all spectra calculated: 9.15 s
  Calculating Fourier components
 5.1% done
 10.0% done
 15.0% done
 20.0% done
 25.1% done
 30.0% done
 35.0% done
 40.0% done
 45.1% done
 50.0% done
 55.0% done
 60.0% done
 65.1% done
 70.0% done
 75.0% done
 80.0% done
 85.1% done
 90.0% done
 95.0% done
 100.0% done
 Wave energy outside computational domain at offshore boundary: .0%
 Calculating short wave time series for theta bin 1 of 1
 Y-point 1 of 1 done.
 Wave bin 1 contains 100.00% of total energy
  Writing wave energy to E_reuse.bcf ...
  file done
  Calculating primary wave interaction
 5.1% done
 10.1% done
 15.0% done
 20.0% done
 25.0% done
 30.1% done
 35.1% done
 40.0% done
 45.0% done
 50.0% done
 55.1% done
 60.1% done
 64.8% done
 69.6% done
 74.2% done
 78.6% done
 83.1% done
 87.5% done
 92.0% done
 96.4% done
  Warning: shallow water so long wave variance is reduced using par%nmax
  Calculating flux at boundary
 Flux 1 of 1
  Writing long wave mass flux to q_reuse.bcf ...
  file done
  --------------------------------
  Spectral wave boundary conditions complete
  --------------------------------
  Boundary conditions complete, starting computation
 Simulation   0.0 percent complete. Average dt   0.025 seconds
 Time remaining108 hours and  43 minutes
 Simulation   0.1 percent complete. Average dt   0.014 seconds
 Time remaining 10 hours and  42 minutes
 Simulation   0.1 percent complete. Average dt   0.014 seconds
 Time remaining  6 hours and  31 minutes
 Simulation   0.2 percent complete. Average dt   0.014 seconds
 Time remaining  5 hours and   4 minutes
 Simulation   0.3 percent complete. Average dt   0.014 seconds
 Time remaining  4 hours and  23 minutes
 Simulation   0.3 percent complete. Average dt   0.014 seconds
 Time remaining  3 hours and  55 minutes
 Simulation   0.4 percent complete. Average dt   0.014 seconds
 Time remaining  3 hours and  38 minutes
 Simulation   0.4 percent complete. Average dt   0.014 seconds
 Time remaining  3 hours and  24 minutes
 Simulation   0.5 percent complete. Average dt   0.014 seconds
 Time remaining  3 hours and  16 minutes
 Simulation   0.6 percent complete. Average dt   0.014 seconds
 Time remaining  3 hours and   9 minutes
 Simulation   0.6 percent complete. Average dt   0.014 seconds
 Time remaining  3 hours and   2 minutes
 Simulation   0.7 percent complete. Average dt   0.014 seconds
 Time remaining  2 hours and  58 minutes
 Simulation   0.8 percent complete. Average dt   0.014 seconds
 Time remaining  2 hours and  53 minutes
 Simulation   0.8 percent complete. Average dt   0.014 seconds
 Time remaining  2 hours and  52 minutes
 Simulation   0.9 percent complete. Average dt   0.014 seconds
 Time remaining  2 hours and  46 minutes
 Simulation   0.9 percent complete. Average dt   0.014 seconds
 Time remaining  2 hours and  48 minutes
 Simulation   1.0 percent complete. Average dt   0.014 seconds
 Time remaining  2 hours and  42 minutes
 Simulation   1.1 percent complete. Average dt   0.014 seconds
 Time remaining  2 hours and  36 minutes
 Simulation   1.1 percent complete. Average dt   0.014 seconds
 Time remaining  2 hours and  38 minutes
 Simulation   1.2 percent complete. Average dt   0.014 seconds
 Time remaining  2 hours and  30 minutes
 Simulation   1.3 percent complete. Average dt   0.014 seconds
 Time remaining  2 hours and  34 minutes
 Simulation   1.3 percent complete. Average dt   0.014 seconds
 Time remaining  2 hours and  37 minutes
 Simulation   1.4 percent complete. Average dt   0.014 seconds
 Time remaining  2 hours and  37 minutes
 Simulation   1.5 percent complete. Average dt   0.014 seconds
 Time remaining  2 hours and  42 minutes
 Simulation   1.5 percent complete. Average dt   0.014 seconds
 Time remaining  2 hours and  60 minutes
 Simulation   1.5 percent complete. Average dt   0.014 seconds
 Time remaining  2 hours and  59 minutes
 Simulation   1.6 percent complete. Average dt   0.014 seconds
 Time remaining  2 hours and  55 minutes
 Simulation   1.6 percent complete. Average dt   0.014 seconds
 Time remaining  2 hours and  60 minutes
 Simulation   1.7 percent complete. Average dt   0.014 seconds
 Time remaining  2 hours and  59 minutes
 Simulation   1.7 percent complete. Average dt   0.014 seconds
 Time remaining  3 hours and   0 minutes
 Simulation   1.8 percent complete. Average dt   0.014 seconds
 Time remaining  2 hours and  58 minutes
 Simulation   1.8 percent complete. Average dt   0.014 seconds
 Time remaining  3 hours and   2 minutes
 Simulation   1.9 percent complete. Average dt   0.014 seconds
 Time remaining  2 hours and  59 minutes
 Simulation   1.9 percent complete. Average dt   0.014 seconds
 Time remaining  2 hours and  57 minutes
 Simulation   1.9 percent complete. Average dt   0.014 seconds
 Time remaining  2 hours and  60 minutes
 Simulation   2.0 percent complete. Average dt   0.014 seconds
 Time remaining  2 hours and  59 minutes
 Simulation   2.0 percent complete. Average dt   0.014 seconds
 Time remaining  2 hours and  59 minutes
 Simulation   2.1 percent complete. Average dt   0.014 seconds
 Time remaining  2 hours and  58 minutes
 Simulation   2.1 percent complete. Average dt   0.014 seconds
 Time remaining  2 hours and  59 minutes
 Simulation   2.2 percent complete. Average dt   0.014 seconds
 Time remaining  2 hours and  59 minutes
 Simulation   2.2 percent complete. Average dt   0.014 seconds
 Time remaining  3 hours and   2 minutes
 Simulation   2.3 percent complete. Average dt   0.014 seconds
 Time remaining  2 hours and  59 minutes
 Simulation   2.3 percent complete. Average dt   0.014 seconds
 Time remaining  2 hours and  59 minutes
 Simulation   2.3 percent complete. Average dt   0.014 seconds
 Time remaining  2 hours and  59 minutes
 Simulation   2.4 percent complete. Average dt   0.014 seconds
 Time remaining  2 hours and  51 minutes
 Simulation   2.4 percent complete. Average dt   0.014 seconds
 Time remaining  2 hours and  50 minutes
 Simulation   2.5 percent complete. Average dt   0.014 seconds
 Time remaining  2 hours and  46 minutes
 Simulation   2.5 percent complete. Average dt   0.014 seconds
 Time remaining  2 hours and  59 minutes
 Simulation   2.6 percent complete. Average dt   0.014 seconds
 Time remaining  3 hours and   0 minutes
 Simulation   2.6 percent complete. Average dt   0.014 seconds
 Time remaining  3 hours and  16 minutes
 Simulation   2.7 percent complete. Average dt   0.014 seconds
 Time remaining  3 hours and  13 minutes
 Simulation   2.7 percent complete. Average dt   0.014 seconds
 Time remaining  3 hours and  17 minutes
 Simulation   2.7 percent complete. Average dt   0.014 seconds
 Time remaining  3 hours and  17 minutes
 Simulation   2.8 percent complete. Average dt   0.014 seconds
 Time remaining  3 hours and  18 minutes
 Simulation   2.8 percent complete. Average dt   0.014 seconds
 Time remaining  3 hours and  21 minutes
 Simulation   2.9 percent complete. Average dt   0.014 seconds
 Time remaining  3 hours and  15 minutes
 Simulation   2.9 percent complete. Average dt   0.014 seconds
 Time remaining  3 hours and  21 minutes
 Simulation   2.9 percent complete. Average dt   0.014 seconds
 Time remaining  3 hours and  25 minutes
 Simulation   3.0 percent complete. Average dt   0.014 seconds
 Time remaining  3 hours and  27 minutes
 Simulation   3.0 percent complete. Average dt   0.014 seconds
 Time remaining  3 hours and  28 minutes
 Simulation   3.0 percent complete. Average dt   0.014 seconds
 Time remaining  3 hours and  23 minutes
 Simulation   3.1 percent complete. Average dt   0.014 seconds
 Time remaining  3 hours and  20 minutes
 Simulation   3.1 percent complete. Average dt   0.014 seconds
 Time remaining  3 hours and  32 minutes
 Simulation   3.1 percent complete. Average dt   0.014 seconds
 Time remaining  3 hours and  46 minutes
 Simulation   3.2 percent complete. Average dt   0.014 seconds
 Time remaining  3 hours and  45 minutes
 Simulation   3.2 percent complete. Average dt   0.014 seconds
 Time remaining  3 hours and  45 minutes
 Simulation   3.2 percent complete. Average dt   0.014 seconds
 Time remaining  3 hours and  48 minutes
 Simulation   3.3 percent complete. Average dt   0.014 seconds
 Time remaining  3 hours and  49 minutes
 Simulation   3.3 percent complete. Average dt   0.014 seconds
 Time remaining  3 hours and  54 minutes
 Simulation   3.3 percent complete. Average dt   0.014 seconds
 Time remaining  3 hours and  46 minutes
 Simulation   3.3 percent complete. Average dt   0.014 seconds
 Time remaining  3 hours and  52 minutes
 Simulation   3.4 percent complete. Average dt   0.014 seconds
 Time remaining  3 hours and  50 minutes
 Simulation   3.4 percent complete. Average dt   0.014 seconds
 Time remaining  3 hours and  50 minutes
 Simulation   3.4 percent complete. Average dt   0.014 seconds
 Time remaining  3 hours and  47 minutes
 Simulation   3.5 percent complete. Average dt   0.014 seconds
 Time remaining  3 hours and  50 minutes
 Simulation   3.5 percent complete. Average dt   0.014 seconds
 Time remaining  3 hours and  51 minutes
 Simulation   3.5 percent complete. Average dt   0.014 seconds
 Time remaining  3 hours and  50 minutes
 Simulation   3.5 percent complete. Average dt   0.014 seconds
 Time remaining  3 hours and  51 minutes
 Simulation   3.6 percent complete. Average dt   0.014 seconds
 Time remaining  3 hours and  53 minutes
 Simulation   3.6 percent complete. Average dt   0.014 seconds
 Time remaining  3 hours and  50 minutes
 Simulation   3.6 percent complete. Average dt   0.014 seconds
 Time remaining  3 hours and  51 minutes
 Simulation   3.7 percent complete. Average dt   0.014 seconds
 Time remaining  3 hours and  51 minutes
 Simulation   3.7 percent complete. Average dt   0.014 seconds
 Time remaining  3 hours and  53 minutes
 Simulation   3.7 percent complete. Average dt   0.014 seconds
 Time remaining  3 hours and  54 minutes
 Simulation   3.8 percent complete. Average dt   0.014 seconds
 Time remaining  3 hours and  49 minutes
 Simulation   3.8 percent complete. Average dt   0.014 seconds
 Time remaining  3 hours and  52 minutes
 Simulation   3.8 percent complete. Average dt   0.014 seconds
 Time remaining  3 hours and  53 minutes
 Simulation   3.9 percent complete. Average dt   0.014 seconds
 Time remaining  3 hours and  51 minutes
 Simulation   3.9 percent complete. Average dt   0.014 seconds
 Time remaining  3 hours and  52 minutes
 Simulation   3.9 percent complete. Average dt   0.014 seconds
 Time remaining  3 hours and  54 minutes
 Simulation   3.9 percent complete. Average dt   0.014 seconds
 Time remaining  3 hours and  53 minutes
 Simulation   4.0 percent complete. Average dt   0.014 seconds
 Time remaining  3 hours and  54 minutes
 Simulation   4.0 percent complete. Average dt   0.014 seconds
 Time remaining  3 hours and  54 minutes
 Simulation   4.0 percent complete. Average dt   0.014 seconds
 Time remaining  3 hours and  55 minutes
 Simulation   4.1 percent complete. Average dt   0.014 seconds
 Time remaining  3 hours and  54 minutes
 Simulation   4.1 percent complete. Average dt   0.014 seconds
 Time remaining  3 hours and  54 minutes
 Simulation   4.1 percent complete. Average dt   0.014 seconds
 Time remaining  3 hours and  56 minutes
 Simulation   4.1 percent complete. Average dt   0.014 seconds
 Time remaining  3 hours and  56 minutes
 Simulation   4.2 percent complete. Average dt   0.014 seconds
 Time remaining  3 hours and  57 minutes
 Simulation   4.2 percent complete. Average dt   0.014 seconds
 Time remaining  3 hours and  52 minutes
 Simulation   4.2 percent complete. Average dt   0.014 seconds
 Time remaining  3 hours and  53 minutes
 Simulation   4.3 percent complete. Average dt   0.014 seconds
 Time remaining  3 hours and  56 minutes
 Simulation   4.3 percent complete. Average dt   0.014 seconds
 Time remaining  3 hours and  58 minutes
 Simulation   4.3 percent complete. Average dt   0.014 seconds
 Time remaining  4 hours and   5 minutes
 Simulation   4.4 percent complete. Average dt   0.014 seconds
 Time remaining  4 hours and   8 minutes
 Simulation   4.4 percent complete. Average dt   0.014 seconds
 Time remaining  4 hours and   3 minutes
 Simulation   4.4 percent complete. Average dt   0.014 seconds
 Time remaining  4 hours and   7 minutes
 Simulation   4.4 percent complete. Average dt   0.014 seconds
 Time remaining  4 hours and   4 minutes
 Simulation   4.5 percent complete. Average dt   0.014 seconds
 Time remaining  4 hours and   6 minutes
 Simulation   4.5 percent complete. Average dt   0.014 seconds
 Time remaining  4 hours and   8 minutes
 Simulation   4.5 percent complete. Average dt   0.014 seconds
 Time remaining  4 hours and   2 minutes
 Simulation   4.6 percent complete. Average dt   0.014 seconds
 Time remaining  4 hours and  10 minutes
 Simulation   4.6 percent complete. Average dt   0.014 seconds
 Time remaining  4 hours and   5 minutes
 Simulation   4.6 percent complete. Average dt   0.014 seconds
 Time remaining  4 hours and   5 minutes
 Simulation   4.6 percent complete. Average dt   0.014 seconds
 Time remaining  4 hours and   5 minutes
 Simulation   4.7 percent complete. Average dt   0.014 seconds
 Time remaining  4 hours and   2 minutes
 Simulation   4.7 percent complete. Average dt   0.014 seconds
 Time remaining  4 hours and   9 minutes
 Simulation   4.7 percent complete. Average dt   0.014 seconds
 Time remaining  4 hours and  11 minutes
 Simulation   4.7 percent complete. Average dt   0.014 seconds
 Time remaining  4 hours and   8 minutes
 Simulation   4.8 percent complete. Average dt   0.014 seconds
 Time remaining  4 hours and   6 minutes
 Simulation   4.8 percent complete. Average dt   0.014 seconds
 Time remaining  4 hours and   5 minutes
 Simulation   4.8 percent complete. Average dt   0.014 seconds
 Time remaining  4 hours and   8 minutes
 Simulation   4.9 percent complete. Average dt   0.014 seconds
 Time remaining  4 hours and  11 minutes
 Simulation   4.9 percent complete. Average dt   0.014 seconds
 Time remaining  4 hours and   6 minutes
 Simulation   4.9 percent complete. Average dt   0.014 seconds
 Time remaining  4 hours and   9 minutes
 Simulation   4.9 percent complete. Average dt   0.014 seconds
 Time remaining  4 hours and  10 minutes
 Simulation   5.0 percent complete. Average dt   0.014 seconds
 Time remaining  4 hours and   8 minutes
 Simulation   5.0 percent complete. Average dt   0.014 seconds
 Time remaining  4 hours and   3 minutes
 Simulation   5.0 percent complete. Average dt   0.014 seconds
 Time remaining  4 hours and  14 minutes
 Simulation   5.1 percent complete. Average dt   0.014 seconds
 Time remaining  4 hours and   8 minutes
 Simulation   5.1 percent complete. Average dt   0.014 seconds
 Time remaining  4 hours and   8 minutes
 Simulation   5.1 percent complete. Average dt   0.014 seconds
 Time remaining  4 hours and  13 minutes
 Simulation   5.1 percent complete. Average dt   0.014 seconds
 Time remaining  4 hours and   9 minutes
 Simulation   5.2 percent complete. Average dt   0.014 seconds
 Time remaining  4 hours and  10 minutes
 Simulation   5.2 percent complete. Average dt   0.014 seconds
 Time remaining  4 hours and  12 minutes
 Simulation   5.2 percent complete. Average dt   0.014 seconds
 Time remaining  4 hours and  12 minutes
 Simulation   5.3 percent complete. Average dt   0.014 seconds
 Time remaining  4 hours and  11 minutes
 Simulation   5.3 percent complete. Average dt   0.014 seconds
 Time remaining  4 hours and  10 minutes
 Simulation   5.3 percent complete. Average dt   0.014 seconds
 Time remaining  4 hours and  10 minutes
 Simulation   5.3 percent complete. Average dt   0.014 seconds
 Time remaining  4 hours and  10 minutes
 Simulation   5.4 percent complete. Average dt   0.014 seconds
 Time remaining  4 hours and   7 minutes
 Simulation   5.4 percent complete. Average dt   0.014 seconds
 Time remaining  4 hours and  18 minutes
 Simulation   5.4 percent complete. Average dt   0.014 seconds
 Time remaining  4 hours and  19 minutes
 Simulation   5.4 percent complete. Average dt   0.014 seconds
 Time remaining  4 hours and  18 minutes
 Simulation   5.5 percent complete. Average dt   0.014 seconds
 Time remaining  4 hours and  20 minutes
 Simulation   5.5 percent complete. Average dt   0.014 seconds
 Time remaining  4 hours and  19 minutes
 Simulation   5.5 percent complete. Average dt   0.014 seconds
 Time remaining  4 hours and  14 minutes
 Simulation   5.6 percent complete. Average dt   0.014 seconds
 Time remaining  4 hours and  16 minutes
 Simulation   5.6 percent complete. Average dt   0.014 seconds
 Time remaining  4 hours and  15 minutes
 Simulation   5.6 percent complete. Average dt   0.014 seconds
 Time remaining  4 hours and  22 minutes
 Simulation   5.6 percent complete. Average dt   0.014 seconds
 Time remaining  4 hours and  21 minutes
 Simulation   5.7 percent complete. Average dt   0.014 seconds
 Time remaining  4 hours and  20 minutes
 Simulation   5.7 percent complete. Average dt   0.014 seconds
 Time remaining  4 hours and  21 minutes
 Simulation   5.7 percent complete. Average dt   0.014 seconds
 Time remaining  4 hours and  20 minutes
 Simulation   5.7 percent complete. Average dt   0.014 seconds
 Time remaining  4 hours and  20 minutes
 Simulation   5.8 percent complete. Average dt   0.014 seconds
 Time remaining  4 hours and  26 minutes
 Simulation   5.8 percent complete. Average dt   0.014 seconds
 Time remaining  4 hours and  21 minutes
 Simulation   5.8 percent complete. Average dt   0.014 seconds
 Time remaining  4 hours and  21 minutes
 Simulation   5.8 percent complete. Average dt   0.014 seconds
 Time remaining  4 hours and  20 minutes
 Simulation   5.9 percent complete. Average dt   0.014 seconds
 Time remaining  4 hours and  17 minutes
 Simulation   5.9 percent complete. Average dt   0.014 seconds
 Time remaining  4 hours and  29 minutes
 Simulation   5.9 percent complete. Average dt   0.014 seconds
 Time remaining  4 hours and  31 minutes
 Simulation   5.9 percent complete. Average dt   0.014 seconds
 Time remaining  4 hours and  29 minutes
 Simulation   6.0 percent complete. Average dt   0.014 seconds
 Time remaining  4 hours and  27 minutes
 Simulation   6.0 percent complete. Average dt   0.014 seconds
 Time remaining  4 hours and  26 minutes
 Simulation   6.0 percent complete. Average dt   0.014 seconds
 Time remaining  4 hours and  25 minutes
 Simulation   6.0 percent complete. Average dt   0.014 seconds
 Time remaining  4 hours and  21 minutes
 Simulation   6.1 percent complete. Average dt   0.014 seconds
 Time remaining  4 hours and  31 minutes
 Simulation   6.1 percent complete. Average dt   0.014 seconds
 Time remaining  4 hours and  33 minutes
 Simulation   6.1 percent complete. Average dt   0.014 seconds
 Time remaining  4 hours and  28 minutes
 Simulation   6.1 percent complete. Average dt   0.014 seconds
 Time remaining  4 hours and  27 minutes
 Simulation   6.2 percent complete. Average dt   0.014 seconds
 Time remaining  4 hours and  37 minutes
 Simulation   6.2 percent complete. Average dt   0.014 seconds
 Time remaining  4 hours and  33 minutes
 Simulation   6.2 percent complete. Average dt   0.014 seconds
 Time remaining  4 hours and  31 minutes
 Simulation   6.2 percent complete. Average dt   0.014 seconds
 Time remaining  4 hours and  26 minutes
 Simulation   6.3 percent complete. Average dt   0.014 seconds
 Time remaining  4 hours and  36 minutes
 Simulation   6.3 percent complete. Average dt   0.014 seconds
 Time remaining  4 hours and  28 minutes
 Simulation   6.3 percent complete. Average dt   0.014 seconds
 Time remaining  4 hours and  30 minutes
 Simulation   6.3 percent complete. Average dt   0.014 seconds
 Time remaining  4 hours and  30 minutes
 Simulation   6.4 percent complete. Average dt   0.014 seconds
 Time remaining  4 hours and  31 minutes
 Simulation   6.4 percent complete. Average dt   0.014 seconds
 Time remaining  4 hours and  33 minutes
 Simulation   6.4 percent complete. Average dt   0.014 seconds
 Time remaining  4 hours and  37 minutes
 Simulation   6.4 percent complete. Average dt   0.014 seconds
 Time remaining  4 hours and  30 minutes
 Simulation   6.5 percent complete. Average dt   0.014 seconds
 Time remaining  4 hours and  30 minutes
 Simulation   6.5 percent complete. Average dt   0.014 seconds
 Time remaining  4 hours and  35 minutes
 Simulation   6.5 percent complete. Average dt   0.014 seconds
 Time remaining  4 hours and  35 minutes
 Simulation   6.5 percent complete. Average dt   0.014 seconds
 Time remaining  4 hours and  34 minutes
 Simulation   6.6 percent complete. Average dt   0.014 seconds
 Time remaining  4 hours and  34 minutes
 Simulation   6.6 percent complete. Average dt   0.014 seconds
 Time remaining  4 hours and  35 minutes
 Simulation   6.6 percent complete. Average dt   0.014 seconds
 Time remaining  4 hours and  33 minutes
 Simulation   6.6 percent complete. Average dt   0.014 seconds
 Time remaining  4 hours and  32 minutes
 Simulation   6.7 percent complete. Average dt   0.014 seconds
 Time remaining  4 hours and  31 minutes
 Simulation   6.7 percent complete. Average dt   0.014 seconds
 Time remaining  4 hours and  33 minutes
 Simulation   6.7 percent complete. Average dt   0.014 seconds
 Time remaining  4 hours and  29 minutes
 Simulation   6.7 percent complete. Average dt   0.014 seconds
 Time remaining  4 hours and  34 minutes
 Simulation   6.8 percent complete. Average dt   0.014 seconds
 Time remaining  4 hours and  32 minutes
 Simulation   6.8 percent complete. Average dt   0.014 seconds
 Time remaining  4 hours and  32 minutes
 Simulation   6.8 percent complete. Average dt   0.014 seconds
 Time remaining  4 hours and  34 minutes
 Simulation   6.8 percent complete. Average dt   0.014 seconds
 Time remaining  4 hours and  34 minutes
 Simulation   6.9 percent complete. Average dt   0.014 seconds
 Time remaining  4 hours and  34 minutes
 Simulation   6.9 percent complete. Average dt   0.014 seconds
 Time remaining  4 hours and  32 minutes
 Simulation   6.9 percent complete. Average dt   0.014 seconds
 Time remaining  4 hours and  39 minutes
 Simulation   6.9 percent complete. Average dt   0.014 seconds
 Time remaining  4 hours and  35 minutes
 Simulation   7.0 percent complete. Average dt   0.014 seconds
 Time remaining  4 hours and  34 minutes
 Simulation   7.0 percent complete. Average dt   0.014 seconds
 Time remaining  4 hours and  33 minutes
 Simulation   7.0 percent complete. Average dt   0.014 seconds
 Time remaining  4 hours and  33 minutes
 Simulation   7.0 percent complete. Average dt   0.014 seconds
 Time remaining  4 hours and  35 minutes
 Simulation   7.1 percent complete. Average dt   0.014 seconds
 Time remaining  4 hours and  35 minutes
 Simulation   7.1 percent complete. Average dt   0.014 seconds
 Time remaining  4 hours and  34 minutes
 Simulation   7.1 percent complete. Average dt   0.014 seconds
 Time remaining  4 hours and  33 minutes
 Simulation   7.1 percent complete. Average dt   0.014 seconds
 Time remaining  4 hours and  36 minutes
 Simulation   7.2 percent complete. Average dt   0.014 seconds
 Time remaining  4 hours and  36 minutes
 Simulation   7.2 percent complete. Average dt   0.014 seconds
 Time remaining  4 hours and  36 minutes
 Simulation   7.2 percent complete. Average dt   0.014 seconds
 Time remaining  4 hours and  34 minutes
 Simulation   7.2 percent complete. Average dt   0.014 seconds
 Time remaining  4 hours and  37 minutes
 Simulation   7.3 percent complete. Average dt   0.014 seconds
 Time remaining  4 hours and  34 minutes
 Simulation   7.3 percent complete. Average dt   0.014 seconds
 Time remaining  4 hours and  32 minutes
 Simulation   7.3 percent complete. Average dt   0.014 seconds
 Time remaining  4 hours and  34 minutes
 Simulation   7.3 percent complete. Average dt   0.014 seconds
 Time remaining  4 hours and  36 minutes
 Simulation   7.4 percent complete. Average dt   0.014 seconds
 Time remaining  4 hours and  39 minutes
 Simulation   7.4 percent complete. Average dt   0.014 seconds
 Time remaining  4 hours and  35 minutes
 Simulation   7.4 percent complete. Average dt   0.014 seconds
 Time remaining  4 hours and  35 minutes
 Simulation   7.4 percent complete. Average dt   0.014 seconds
 Time remaining  4 hours and  32 minutes
 Simulation   7.5 percent complete. Average dt   0.014 seconds
 Time remaining  4 hours and  35 minutes
 Simulation   7.5 percent complete. Average dt   0.014 seconds
 Time remaining  4 hours and  35 minutes
 Simulation   7.5 percent complete. Average dt   0.014 seconds
 Time remaining  4 hours and  31 minutes
 Simulation   7.5 percent complete. Average dt   0.014 seconds
 Time remaining  4 hours and  35 minutes
 Simulation   7.6 percent complete. Average dt   0.014 seconds
 Time remaining  4 hours and  39 minutes
 Simulation   7.6 percent complete. Average dt   0.013 seconds
 Time remaining  4 hours and  36 minutes
 Simulation   7.6 percent complete. Average dt   0.014 seconds
 Time remaining  4 hours and  37 minutes
 Simulation   7.6 percent complete. Average dt   0.014 seconds
 Time remaining  4 hours and  36 minutes
 Simulation   7.7 percent complete. Average dt   0.014 seconds
 Time remaining  4 hours and  32 minutes
 Simulation   7.7 percent complete. Average dt   0.014 seconds
 Time remaining  4 hours and  36 minutes
 Simulation   7.7 percent complete. Average dt   0.014 seconds
 Time remaining  4 hours and  35 minutes
 Simulation   7.7 percent complete. Average dt   0.014 seconds
 Time remaining  4 hours and  27 minutes
 Simulation   7.8 percent complete. Average dt   0.014 seconds
 Time remaining  4 hours and  35 minutes
 Simulation   7.8 percent complete. Average dt   0.014 seconds
 Time remaining  4 hours and  36 minutes
 Simulation   7.8 percent complete. Average dt   0.014 seconds
 Time remaining  4 hours and  35 minutes
 Simulation   7.8 percent complete. Average dt   0.014 seconds
 Time remaining  4 hours and  29 minutes
 Simulation   7.9 percent complete. Average dt   0.014 seconds
 Time remaining  4 hours and  36 minutes
 Simulation   7.9 percent complete. Average dt   0.014 seconds
 Time remaining  4 hours and  34 minutes
 Simulation   7.9 percent complete. Average dt   0.014 seconds
 Time remaining  4 hours and  32 minutes
 Simulation   7.9 percent complete. Average dt   0.014 seconds
 Time remaining  4 hours and  34 minutes
 Simulation   8.0 percent complete. Average dt   0.014 seconds
 Time remaining  4 hours and  41 minutes
 Simulation   8.0 percent complete. Average dt   0.014 seconds
 Time remaining  4 hours and  35 minutes
 Simulation   8.0 percent complete. Average dt   0.014 seconds
 Time remaining  4 hours and  36 minutes
 Simulation   8.0 percent complete. Average dt   0.014 seconds
 Time remaining  4 hours and  44 minutes
 Simulation   8.1 percent complete. Average dt   0.014 seconds
 Time remaining  4 hours and  37 minutes
 Simulation   8.1 percent complete. Average dt   0.014 seconds
 Time remaining  4 hours and  36 minutes
 Simulation   8.1 percent complete. Average dt   0.014 seconds
 Time remaining  4 hours and  32 minutes
 Simulation   8.1 percent complete. Average dt   0.014 seconds
 Time remaining  4 hours and  37 minutes
 Simulation   8.2 percent complete. Average dt   0.014 seconds
 Time remaining  4 hours and  35 minutes
 Simulation   8.2 percent complete. Average dt   0.014 seconds
 Time remaining  4 hours and  37 minutes
 Simulation   8.2 percent complete. Average dt   0.014 seconds
 Time remaining  4 hours and  35 minutes
 Simulation   8.2 percent complete. Average dt   0.014 seconds
 Time remaining  4 hours and  38 minutes
 Simulation   8.3 percent complete. Average dt   0.014 seconds
 Time remaining  4 hours and  36 minutes
 Simulation   8.3 percent complete. Average dt   0.014 seconds
 Time remaining  4 hours and  36 minutes
 Simulation   8.3 percent complete. Average dt   0.014 seconds
 Time remaining  4 hours and  33 minutes
 Simulation   8.3 percent complete. Average dt   0.014 seconds
 Time remaining  4 hours and  37 minutes
 Simulation   8.4 percent complete. Average dt   0.014 seconds
 Time remaining  4 hours and  37 minutes
 Simulation   8.4 percent complete. Average dt   0.014 seconds
 Time remaining  4 hours and  38 minutes
 Simulation   8.4 percent complete. Average dt   0.014 seconds
 Time remaining  4 hours and  41 minutes
 Simulation   8.4 percent complete. Average dt   0.014 seconds
 Time remaining  4 hours and  44 minutes
 Simulation   8.5 percent complete. Average dt   0.014 seconds
 Time remaining  4 hours and  33 minutes
 Simulation   8.5 percent complete. Average dt   0.014 seconds
 Time remaining  4 hours and  34 minutes
 Simulation   8.5 percent complete. Average dt   0.014 seconds
 Time remaining  4 hours and  38 minutes
 Simulation   8.5 percent complete. Average dt   0.014 seconds
 Time remaining  4 hours and  36 minutes
 Simulation   8.6 percent complete. Average dt   0.014 seconds
 Time remaining  4 hours and  35 minutes
 Simulation   8.6 percent complete. Average dt   0.014 seconds
 Time remaining  4 hours and  38 minutes
 Simulation   8.6 percent complete. Average dt   0.014 seconds
 Time remaining  4 hours and  29 minutes
 Simulation   8.6 percent complete. Average dt   0.014 seconds
 Time remaining  4 hours and  24 minutes
 Simulation   8.7 percent complete. Average dt   0.014 seconds
 Time remaining  4 hours and  38 minutes
 Simulation   8.7 percent complete. Average dt   0.014 seconds
 Time remaining  4 hours and  37 minutes
 Simulation   8.7 percent complete. Average dt   0.014 seconds
 Time remaining  4 hours and  38 minutes
 Simulation   8.7 percent complete. Average dt   0.014 seconds
 Time remaining  4 hours and  37 minutes
 Simulation   8.8 percent complete. Average dt   0.014 seconds
 Time remaining  4 hours and  37 minutes
 Simulation   8.8 percent complete. Average dt   0.014 seconds
 Time remaining  4 hours and  37 minutes
 Simulation   8.8 percent complete. Average dt   0.014 seconds
 Time remaining  4 hours and  36 minutes
 Simulation   8.8 percent complete. Average dt   0.014 seconds
 Time remaining  4 hours and  35 minutes
 Simulation   8.9 percent complete. Average dt   0.014 seconds
 Time remaining  4 hours and  34 minutes
 Simulation   8.9 percent complete. Average dt   0.014 seconds
 Time remaining  4 hours and  35 minutes
 Simulation   8.9 percent complete. Average dt   0.014 seconds
 Time remaining  4 hours and  34 minutes
 Simulation   8.9 percent complete. Average dt   0.014 seconds
 Time remaining  4 hours and  37 minutes
 Simulation   9.0 percent complete. Average dt   0.014 seconds
 Time remaining  4 hours and  34 minutes
 Simulation   9.0 percent complete. Average dt   0.014 seconds
 Time remaining  4 hours and  36 minutes
 Simulation   9.0 percent complete. Average dt   0.014 seconds
 Time remaining  4 hours and  36 minutes
 Simulation   9.0 percent complete. Average dt   0.014 seconds
 Time remaining  4 hours and  34 minutes
 Simulation   9.1 percent complete. Average dt   0.014 seconds
 Time remaining  4 hours and  35 minutes
 Simulation   9.1 percent complete. Average dt   0.014 seconds
 Time remaining  4 hours and  37 minutes
 Simulation   9.1 percent complete. Average dt   0.014 seconds
 Time remaining  4 hours and  36 minutes
 Simulation   9.1 percent complete. Average dt   0.014 seconds
 Time remaining  4 hours and  36 minutes
 Simulation   9.2 percent complete. Average dt   0.014 seconds
 Time remaining  4 hours and  41 minutes
 Simulation   9.2 percent complete. Average dt   0.014 seconds
 Time remaining  4 hours and  37 minutes
 Simulation   9.2 percent complete. Average dt   0.014 seconds
 Time remaining  4 hours and  38 minutes
 Simulation   9.2 percent complete. Average dt   0.014 seconds
 Time remaining  4 hours and  40 minutes
 Simulation   9.3 percent complete. Average dt   0.014 seconds
 Time remaining  4 hours and  33 minutes
 Simulation   9.3 percent complete. Average dt   0.014 seconds
 Time remaining  4 hours and  33 minutes
 Simulation   9.3 percent complete. Average dt   0.014 seconds
 Time remaining  4 hours and  33 minutes
 Simulation   9.3 percent complete. Average dt   0.014 seconds
 Time remaining  4 hours and  35 minutes
 Simulation   9.4 percent complete. Average dt   0.014 seconds
 Time remaining  4 hours and  49 minutes
 Simulation   9.4 percent complete. Average dt   0.014 seconds
 Time remaining  4 hours and  38 minutes
 Simulation   9.4 percent complete. Average dt   0.014 seconds
 Time remaining  4 hours and  36 minutes
 Simulation   9.4 percent complete. Average dt   0.014 seconds
 Time remaining  4 hours and  37 minutes
 Simulation   9.5 percent complete. Average dt   0.014 seconds
 Time remaining  4 hours and  34 minutes
 Simulation   9.5 percent complete. Average dt   0.014 seconds
 Time remaining  4 hours and  36 minutes
 Simulation   9.5 percent complete. Average dt   0.014 seconds
 Time remaining  4 hours and  32 minutes
 Simulation   9.5 percent complete. Average dt   0.014 seconds
 Time remaining  4 hours and  36 minutes
 Simulation   9.6 percent complete. Average dt   0.014 seconds
 Time remaining  4 hours and  37 minutes
 Simulation   9.6 percent complete. Average dt   0.014 seconds
 Time remaining  4 hours and  28 minutes
 Simulation   9.6 percent complete. Average dt   0.014 seconds
 Time remaining  4 hours and  37 minutes
 Simulation   9.6 percent complete. Average dt   0.014 seconds
 Time remaining  4 hours and  37 minutes
 Simulation   9.7 percent complete. Average dt   0.014 seconds
 Time remaining  4 hours and  39 minutes
 Simulation   9.7 percent complete. Average dt   0.014 seconds
 Time remaining  4 hours and  31 minutes
 Simulation   9.7 percent complete. Average dt   0.014 seconds
 Time remaining  4 hours and  34 minutes
 Simulation   9.7 percent complete. Average dt   0.014 seconds
 Time remaining  4 hours and  35 minutes
 Simulation   9.8 percent complete. Average dt   0.014 seconds
 Time remaining  4 hours and  35 minutes
 Simulation   9.8 percent complete. Average dt   0.014 seconds
 Time remaining  4 hours and  38 minutes
 Simulation   9.8 percent complete. Average dt   0.014 seconds
 Time remaining  4 hours and  39 minutes
 Simulation   9.8 percent complete. Average dt   0.014 seconds
 Time remaining  4 hours and  41 minutes
 Simulation   9.9 percent complete. Average dt   0.014 seconds
 Time remaining  4 hours and  37 minutes
 Simulation   9.9 percent complete. Average dt   0.014 seconds
 Time remaining  4 hours and  33 minutes
 Simulation   9.9 percent complete. Average dt   0.014 seconds
 Time remaining  4 hours and  34 minutes
 Simulation   9.9 percent complete. Average dt   0.014 seconds
 Time remaining  4 hours and  39 minutes
 Simulation  10.0 percent complete. Average dt   0.014 seconds
 Time remaining  4 hours and  33 minutes
 Simulation  10.0 percent complete. Average dt   0.014 seconds
 Time remaining  4 hours and  35 minutes
 Simulation  10.0 percent complete. Average dt   0.014 seconds
 Time remaining  4 hours and  34 minutes
 Simulation  10.0 percent complete. Average dt   0.014 seconds
 Time remaining  4 hours and  29 minutes
 Simulation  10.1 percent complete. Average dt   0.014 seconds
 Time remaining  4 hours and  36 minutes
 Simulation  10.1 percent complete. Average dt   0.014 seconds
 Time remaining  4 hours and  34 minutes
 Simulation  10.1 percent complete. Average dt   0.014 seconds
 Time remaining  4 hours and  36 minutes
 Simulation  10.1 percent complete. Average dt   0.014 seconds
 Time remaining  4 hours and  34 minutes
 Simulation  10.2 percent complete. Average dt   0.014 seconds
 Time remaining  4 hours and  32 minutes
 Simulation  10.2 percent complete. Average dt   0.014 seconds
 Time remaining  4 hours and  35 minutes
 Simulation  10.2 percent complete. Average dt   0.014 seconds
 Time remaining  4 hours and  36 minutes
 Simulation  10.2 percent complete. Average dt   0.014 seconds
 Time remaining  4 hours and  37 minutes
 Simulation  10.3 percent complete. Average dt   0.014 seconds
 Time remaining  4 hours and  36 minutes
 Simulation  10.3 percent complete. Average dt   0.014 seconds
 Time remaining  4 hours and  38 minutes
 Simulation  10.3 percent complete. Average dt   0.014 seconds
 Time remaining  4 hours and  39 minutes
 Simulation  10.3 percent complete. Average dt   0.014 seconds
 Time remaining  4 hours and  38 minutes
 Simulation  10.4 percent complete. Average dt   0.014 seconds
 Time remaining  4 hours and  39 minutes
 Simulation  10.4 percent complete. Average dt   0.014 seconds
 Time remaining  4 hours and  36 minutes
 Simulation  10.4 percent complete. Average dt   0.014 seconds
 Time remaining  4 hours and  38 minutes
 Simulation  10.4 percent complete. Average dt   0.014 seconds
 Time remaining  4 hours and  37 minutes
 Simulation  10.5 percent complete. Average dt   0.014 seconds
 Time remaining  4 hours and  24 minutes
 Simulation  10.5 percent complete. Average dt   0.014 seconds
 Time remaining  4 hours and  32 minutes
 Simulation  10.5 percent complete. Average dt   0.014 seconds
 Time remaining  4 hours and  34 minutes
 Simulation  10.5 percent complete. Average dt   0.014 seconds
 Time remaining  4 hours and  30 minutes
 Simulation  10.6 percent complete. Average dt   0.014 seconds
 Time remaining  4 hours and  34 minutes
 Simulation  10.6 percent complete. Average dt   0.014 seconds
 Time remaining  4 hours and  36 minutes
 Simulation  10.6 percent complete. Average dt   0.014 seconds
 Time remaining  4 hours and  35 minutes
 Simulation  10.6 percent complete. Average dt   0.014 seconds
 Time remaining  4 hours and  34 minutes
 Simulation  10.7 percent complete. Average dt   0.014 seconds
 Time remaining  4 hours and  36 minutes
 Simulation  10.7 percent complete. Average dt   0.014 seconds
 Time remaining  4 hours and  32 minutes
 Simulation  10.7 percent complete. Average dt   0.014 seconds
 Time remaining  4 hours and  36 minutes
 Simulation  10.7 percent complete. Average dt   0.014 seconds
 Time remaining  4 hours and  36 minutes
 Simulation  10.8 percent complete. Average dt   0.014 seconds
 Time remaining  4 hours and  39 minutes
 Simulation  10.8 percent complete. Average dt   0.014 seconds
 Time remaining  4 hours and  38 minutes
 Simulation  10.8 percent complete. Average dt   0.014 seconds
 Time remaining  4 hours and  36 minutes
 Simulation  10.8 percent complete. Average dt   0.014 seconds
 Time remaining  4 hours and  34 minutes
 Simulation  10.9 percent complete. Average dt   0.014 seconds
 Time remaining  4 hours and  37 minutes
 Simulation  10.9 percent complete. Average dt   0.014 seconds
 Time remaining  4 hours and  36 minutes
 Simulation  10.9 percent complete. Average dt   0.014 seconds
 Time remaining  4 hours and  38 minutes
 Simulation  10.9 percent complete. Average dt   0.014 seconds
 Time remaining  4 hours and  35 minutes
 Simulation  11.0 percent complete. Average dt   0.014 seconds
 Time remaining  4 hours and  36 minutes
 Simulation  11.0 percent complete. Average dt   0.014 seconds
 Time remaining  4 hours and  26 minutes
 Simulation  11.0 percent complete. Average dt   0.014 seconds
 Time remaining  4 hours and  36 minutes
 Simulation  11.0 percent complete. Average dt   0.014 seconds
 Time remaining  4 hours and  36 minutes
 Simulation  11.1 percent complete. Average dt   0.014 seconds
 Time remaining  4 hours and  37 minutes
 Simulation  11.1 percent complete. Average dt   0.014 seconds
 Time remaining  4 hours and  35 minutes
 Simulation  11.1 percent complete. Average dt   0.014 seconds
 Time remaining  4 hours and  37 minutes
 Simulation  11.1 percent complete. Average dt   0.014 seconds
 Time remaining  4 hours and  34 minutes
 Simulation  11.2 percent complete. Average dt   0.014 seconds
 Time remaining  4 hours and  36 minutes
 Simulation  11.2 percent complete. Average dt   0.014 seconds
 Time remaining  4 hours and  32 minutes
 Simulation  11.2 percent complete. Average dt   0.014 seconds
 Time remaining  4 hours and  41 minutes
 Simulation  11.2 percent complete. Average dt   0.014 seconds
 Time remaining  4 hours and  33 minutes
 Simulation  11.3 percent complete. Average dt   0.014 seconds
 Time remaining  4 hours and  35 minutes
 Simulation  11.3 percent complete. Average dt   0.014 seconds
 Time remaining  4 hours and  36 minutes
 Simulation  11.3 percent complete. Average dt   0.014 seconds
 Time remaining  4 hours and  35 minutes
 Simulation  11.3 percent complete. Average dt   0.014 seconds
 Time remaining  4 hours and  34 minutes
 Simulation  11.4 percent complete. Average dt   0.014 seconds
 Time remaining  4 hours and  35 minutes
 Simulation  11.4 percent complete. Average dt   0.014 seconds
 Time remaining  4 hours and  36 minutes
 Simulation  11.4 percent complete. Average dt   0.014 seconds
 Time remaining  4 hours and  34 minutes
 Simulation  11.4 percent complete. Average dt   0.014 seconds
 Time remaining  4 hours and  36 minutes
 Simulation  11.5 percent complete. Average dt   0.014 seconds
 Time remaining  4 hours and  30 minutes
 Simulation  11.5 percent complete. Average dt   0.014 seconds
 Time remaining  4 hours and  27 minutes
 Simulation  11.5 percent complete. Average dt   0.014 seconds
 Time remaining  4 hours and  34 minutes
 Simulation  11.5 percent complete. Average dt   0.014 seconds
 Time remaining  4 hours and  35 minutes
 Simulation  11.6 percent complete. Average dt   0.014 seconds
 Time remaining  4 hours and  34 minutes
 Simulation  11.6 percent complete. Average dt   0.014 seconds
 Time remaining  4 hours and  33 minutes
 Simulation  11.6 percent complete. Average dt   0.014 seconds
 Time remaining  4 hours and  37 minutes
 Simulation  11.6 percent complete. Average dt   0.014 seconds
 Time remaining  4 hours and  34 minutes
 Simulation  11.7 percent complete. Average dt   0.014 seconds
 Time remaining  4 hours and  33 minutes
 Simulation  11.7 percent complete. Average dt   0.014 seconds
 Time remaining  4 hours and  34 minutes
 Simulation  11.7 percent complete. Average dt   0.014 seconds
 Time remaining  4 hours and  33 minutes
 Simulation  11.7 percent complete. Average dt   0.014 seconds
 Time remaining  4 hours and  36 minutes
 Simulation  11.8 percent complete. Average dt   0.014 seconds
 Time remaining  4 hours and  35 minutes
 Simulation  11.8 percent complete. Average dt   0.014 seconds
 Time remaining  4 hours and  34 minutes
 Simulation  11.8 percent complete. Average dt   0.014 seconds
 Time remaining  4 hours and  33 minutes
 Simulation  11.8 percent complete. Average dt   0.014 seconds
 Time remaining  4 hours and  36 minutes
 Simulation  11.9 percent complete. Average dt   0.014 seconds
 Time remaining  4 hours and  35 minutes
 Simulation  11.9 percent complete. Average dt   0.014 seconds
 Time remaining  4 hours and  35 minutes
 Simulation  11.9 percent complete. Average dt   0.014 seconds
 Time remaining  4 hours and  36 minutes
 Simulation  11.9 percent complete. Average dt   0.014 seconds
 Time remaining  4 hours and  38 minutes
 Simulation  12.0 percent complete. Average dt   0.014 seconds
 Time remaining  4 hours and  40 minutes
 Simulation  12.0 percent complete. Average dt   0.014 seconds
 Time remaining  4 hours and  32 minutes
 Simulation  12.0 percent complete. Average dt   0.014 seconds
 Time remaining  4 hours and  35 minutes
 Simulation  12.0 percent complete. Average dt   0.014 seconds
 Time remaining  4 hours and  33 minutes
 Simulation  12.1 percent complete. Average dt   0.014 seconds
 Time remaining  4 hours and  34 minutes
 Simulation  12.1 percent complete. Average dt   0.014 seconds
 Time remaining  4 hours and  34 minutes
 Simulation  12.1 percent complete. Average dt   0.014 seconds
 Time remaining  4 hours and  35 minutes
 Simulation  12.1 percent complete. Average dt   0.014 seconds
 Time remaining  4 hours and  33 minutes
 Simulation  12.2 percent complete. Average dt   0.014 seconds
 Time remaining  4 hours and  36 minutes
 Simulation  12.2 percent complete. Average dt   0.014 seconds
 Time remaining  4 hours and  33 minutes
 Simulation  12.2 percent complete. Average dt   0.014 seconds
 Time remaining  4 hours and  34 minutes
 Simulation  12.2 percent complete. Average dt   0.014 seconds
 Time remaining  4 hours and  32 minutes
 Simulation  12.3 percent complete. Average dt   0.014 seconds
 Time remaining  4 hours and  34 minutes
 Simulation  12.3 percent complete. Average dt   0.014 seconds
 Time remaining  4 hours and  33 minutes
 Simulation  12.3 percent complete. Average dt   0.014 seconds
 Time remaining  4 hours and  31 minutes
 Simulation  12.3 percent complete. Average dt   0.014 seconds
 Time remaining  4 hours and  33 minutes
 Simulation  12.4 percent complete. Average dt   0.014 seconds
 Time remaining  4 hours and  36 minutes
 Simulation  12.4 percent complete. Average dt   0.014 seconds
 Time remaining  4 hours and  37 minutes
 Simulation  12.4 percent complete. Average dt   0.014 seconds
 Time remaining  4 hours and  36 minutes
 Simulation  12.4 percent complete. Average dt   0.014 seconds
 Time remaining  4 hours and  28 minutes
 Simulation  12.5 percent complete. Average dt   0.014 seconds
 Time remaining  4 hours and  16 minutes
 Simulation  12.5 percent complete. Average dt   0.014 seconds
 Time remaining  4 hours and  37 minutes
 Simulation  12.5 percent complete. Average dt   0.014 seconds
 Time remaining  4 hours and  38 minutes
 Simulation  12.5 percent complete. Average dt   0.014 seconds
 Time remaining  4 hours and  34 minutes
 Simulation  12.6 percent complete. Average dt   0.014 seconds
 Time remaining  4 hours and  33 minutes
 Simulation  12.6 percent complete. Average dt   0.014 seconds
 Time remaining  4 hours and  31 minutes
 Simulation  12.6 percent complete. Average dt   0.014 seconds
 Time remaining  4 hours and  29 minutes
 Simulation  12.6 percent complete. Average dt   0.014 seconds
 Time remaining  4 hours and  35 minutes
 Simulation  12.7 percent complete. Average dt   0.014 seconds
 Time remaining  4 hours and  35 minutes
 Simulation  12.7 percent complete. Average dt   0.014 seconds
 Time remaining  4 hours and  35 minutes
 Simulation  12.7 percent complete. Average dt   0.014 seconds
 Time remaining  4 hours and  31 minutes
 Simulation  12.7 percent complete. Average dt   0.014 seconds
 Time remaining  4 hours and  37 minutes
 Simulation  12.8 percent complete. Average dt   0.014 seconds
 Time remaining  4 hours and  32 minutes
 Simulation  12.8 percent complete. Average dt   0.014 seconds
 Time remaining  4 hours and  23 minutes
 Simulation  12.8 percent complete. Average dt   0.014 seconds
 Time remaining  4 hours and  28 minutes
 Simulation  12.8 percent complete. Average dt   0.014 seconds
 Time remaining  4 hours and  29 minutes
 Simulation  12.9 percent complete. Average dt   0.014 seconds
 Time remaining  4 hours and  37 minutes
 Simulation  12.9 percent complete. Average dt   0.014 seconds
 Time remaining  4 hours and  33 minutes
 Simulation  12.9 percent complete. Average dt   0.014 seconds
 Time remaining  4 hours and  34 minutes
 Simulation  12.9 percent complete. Average dt   0.014 seconds
 Time remaining  4 hours and  34 minutes
 Simulation  13.0 percent complete. Average dt   0.014 seconds
 Time remaining  4 hours and  25 minutes
 Simulation  13.0 percent complete. Average dt   0.014 seconds
 Time remaining  4 hours and  24 minutes
 Simulation  13.0 percent complete. Average dt   0.014 seconds
 Time remaining  4 hours and  33 minutes
 Simulation  13.0 percent complete. Average dt   0.014 seconds
 Time remaining  4 hours and  33 minutes
 Simulation  13.1 percent complete. Average dt   0.014 seconds
 Time remaining  4 hours and  33 minutes
 Simulation  13.1 percent complete. Average dt   0.014 seconds
 Time remaining  4 hours and  32 minutes
 Simulation  13.1 percent complete. Average dt   0.014 seconds
 Time remaining  4 hours and  26 minutes
 Simulation  13.1 percent complete. Average dt   0.014 seconds
 Time remaining  4 hours and  30 minutes
 Simulation  13.2 percent complete. Average dt   0.014 seconds
 Time remaining  4 hours and  35 minutes
 Simulation  13.2 percent complete. Average dt   0.014 seconds
 Time remaining  4 hours and  32 minutes
 Simulation  13.2 percent complete. Average dt   0.014 seconds
 Time remaining  4 hours and  33 minutes
 Simulation  13.2 percent complete. Average dt   0.014 seconds
 Time remaining  4 hours and  38 minutes
 Simulation  13.3 percent complete. Average dt   0.014 seconds
 Time remaining  4 hours and  34 minutes
 Simulation  13.3 percent complete. Average dt   0.014 seconds
 Time remaining  4 hours and  33 minutes
 Simulation  13.3 percent complete. Average dt   0.014 seconds
 Time remaining  4 hours and  31 minutes
 Simulation  13.3 percent complete. Average dt   0.014 seconds
 Time remaining  4 hours and  32 minutes
 Simulation  13.4 percent complete. Average dt   0.014 seconds
 Time remaining  4 hours and  30 minutes
 Simulation  13.4 percent complete. Average dt   0.014 seconds
 Time remaining  4 hours and  32 minutes
 Simulation  13.4 percent complete. Average dt   0.014 seconds
 Time remaining  4 hours and  36 minutes
 Simulation  13.4 percent complete. Average dt   0.014 seconds
 Time remaining  4 hours and  30 minutes
 Simulation  13.5 percent complete. Average dt   0.014 seconds
 Time remaining  4 hours and  31 minutes
 Simulation  13.5 percent complete. Average dt   0.014 seconds
 Time remaining  4 hours and  34 minutes
 Simulation  13.5 percent complete. Average dt   0.014 seconds
 Time remaining  4 hours and  32 minutes
 Simulation  13.5 percent complete. Average dt   0.014 seconds
 Time remaining  4 hours and  32 minutes
 Simulation  13.6 percent complete. Average dt   0.014 seconds
 Time remaining  4 hours and  35 minutes
 Simulation  13.6 percent complete. Average dt   0.014 seconds
 Time remaining  4 hours and  33 minutes
 Simulation  13.6 percent complete. Average dt   0.014 seconds
 Time remaining  4 hours and  32 minutes
 Simulation  13.6 percent complete. Average dt   0.014 seconds
 Time remaining  4 hours and  32 minutes
 Simulation  13.7 percent complete. Average dt   0.014 seconds
 Time remaining  4 hours and  37 minutes
 Simulation  13.7 percent complete. Average dt   0.014 seconds
 Time remaining  4 hours and  31 minutes
 Simulation  13.7 percent complete. Average dt   0.014 seconds
 Time remaining  4 hours and  32 minutes
 Simulation  13.7 percent complete. Average dt   0.014 seconds
 Time remaining  4 hours and  38 minutes
 Simulation  13.8 percent complete. Average dt   0.014 seconds
 Time remaining  4 hours and  30 minutes
 Simulation  13.8 percent complete. Average dt   0.014 seconds
 Time remaining  4 hours and  36 minutes
 Simulation  13.8 percent complete. Average dt   0.014 seconds
 Time remaining  4 hours and  32 minutes
 Simulation  13.8 percent complete. Average dt   0.014 seconds
 Time remaining  4 hours and  30 minutes
 Simulation  13.9 percent complete. Average dt   0.014 seconds
 Time remaining  4 hours and  31 minutes
 Simulation  13.9 percent complete. Average dt   0.014 seconds
 Time remaining  4 hours and  33 minutes
 Simulation  13.9 percent complete. Average dt   0.014 seconds
 Time remaining  4 hours and  33 minutes
 Simulation  13.9 percent complete. Average dt   0.014 seconds
 Time remaining  4 hours and  33 minutes
 Simulation  14.0 percent complete. Average dt   0.014 seconds
 Time remaining  4 hours and  33 minutes
 Simulation  14.0 percent complete. Average dt   0.014 seconds
 Time remaining  4 hours and  32 minutes
 Simulation  14.0 percent complete. Average dt   0.014 seconds
 Time remaining  4 hours and  32 minutes
 Simulation  14.0 percent complete. Average dt   0.014 seconds
 Time remaining  4 hours and  29 minutes
 Simulation  14.1 percent complete. Average dt   0.014 seconds
 Time remaining  4 hours and  34 minutes
 Simulation  14.1 percent complete. Average dt   0.014 seconds
 Time remaining  4 hours and  32 minutes
 Simulation  14.1 percent complete. Average dt   0.014 seconds
 Time remaining  4 hours and  32 minutes
 Simulation  14.1 percent complete. Average dt   0.014 seconds
 Time remaining  4 hours and  29 minutes
 Simulation  14.2 percent complete. Average dt   0.014 seconds
 Time remaining  4 hours and  30 minutes
 Simulation  14.2 percent complete. Average dt   0.014 seconds
 Time remaining  4 hours and  25 minutes
 Simulation  14.2 percent complete. Average dt   0.014 seconds
 Time remaining  4 hours and  25 minutes
 Simulation  14.2 percent complete. Average dt   0.014 seconds
 Time remaining  4 hours and  35 minutes
 Simulation  14.3 percent complete. Average dt   0.014 seconds
 Time remaining  4 hours and  27 minutes
 Simulation  14.3 percent complete. Average dt   0.014 seconds
 Time remaining  4 hours and  30 minutes
 Simulation  14.3 percent complete. Average dt   0.014 seconds
 Time remaining  4 hours and  34 minutes
 Simulation  14.3 percent complete. Average dt   0.014 seconds
 Time remaining  4 hours and  30 minutes
 Simulation  14.4 percent complete. Average dt   0.014 seconds
 Time remaining  4 hours and  31 minutes
 Simulation  14.4 percent complete. Average dt   0.014 seconds
 Time remaining  4 hours and  29 minutes
 Simulation  14.4 percent complete. Average dt   0.014 seconds
 Time remaining  4 hours and  29 minutes
 Simulation  14.4 percent complete. Average dt   0.014 seconds
 Time remaining  4 hours and  26 minutes
 Simulation  14.5 percent complete. Average dt   0.014 seconds
 Time remaining  4 hours and  23 minutes
 Simulation  14.5 percent complete. Average dt   0.014 seconds
 Time remaining  4 hours and  30 minutes
 Simulation  14.5 percent complete. Average dt   0.014 seconds
 Time remaining  4 hours and  31 minutes
 Simulation  14.5 percent complete. Average dt   0.014 seconds
 Time remaining  4 hours and  32 minutes
 Simulation  14.6 percent complete. Average dt   0.014 seconds
 Time remaining  4 hours and  30 minutes
 Simulation  14.6 percent complete. Average dt   0.014 seconds
 Time remaining  4 hours and  29 minutes
 Simulation  14.6 percent complete. Average dt   0.014 seconds
 Time remaining  4 hours and  31 minutes
 Simulation  14.6 percent complete. Average dt   0.014 seconds
 Time remaining  4 hours and  31 minutes
 Simulation  14.7 percent complete. Average dt   0.014 seconds
 Time remaining  4 hours and  30 minutes
 Simulation  14.7 percent complete. Average dt   0.014 seconds
 Time remaining  4 hours and  28 minutes
 Simulation  14.7 percent complete. Average dt   0.014 seconds
 Time remaining  4 hours and  30 minutes
 Simulation  14.7 percent complete. Average dt   0.014 seconds
 Time remaining  4 hours and  30 minutes
 Simulation  14.8 percent complete. Average dt   0.014 seconds
 Time remaining  4 hours and  28 minutes
 Simulation  14.8 percent complete. Average dt   0.014 seconds
 Time remaining  4 hours and  27 minutes
 Simulation  14.8 percent complete. Average dt   0.014 seconds
 Time remaining  4 hours and  30 minutes
 Simulation  14.8 percent complete. Average dt   0.014 seconds
 Time remaining  4 hours and  29 minutes
 Simulation  14.9 percent complete. Average dt   0.014 seconds
 Time remaining  4 hours and  33 minutes
 Simulation  14.9 percent complete. Average dt   0.014 seconds
 Time remaining  4 hours and  30 minutes
 Simulation  14.9 percent complete. Average dt   0.014 seconds
 Time remaining  4 hours and  28 minutes
 Simulation  14.9 percent complete. Average dt   0.014 seconds
 Time remaining  4 hours and  33 minutes
 Simulation  15.0 percent complete. Average dt   0.014 seconds
 Time remaining  4 hours and  28 minutes
 Simulation  15.0 percent complete. Average dt   0.014 seconds
 Time remaining  4 hours and  28 minutes
 Simulation  15.0 percent complete. Average dt   0.014 seconds
 Time remaining  4 hours and  30 minutes
 Simulation  15.0 percent complete. Average dt   0.014 seconds
 Time remaining  4 hours and  33 minutes
 Simulation  15.1 percent complete. Average dt   0.014 seconds
 Time remaining  4 hours and  24 minutes
 Simulation  15.1 percent complete. Average dt   0.014 seconds
 Time remaining  4 hours and  30 minutes
 Simulation  15.1 percent complete. Average dt   0.014 seconds
 Time remaining  4 hours and  29 minutes
 Simulation  15.1 percent complete. Average dt   0.014 seconds
 Time remaining  4 hours and  24 minutes
 Simulation  15.2 percent complete. Average dt   0.014 seconds
 Time remaining  4 hours and  17 minutes
 Simulation  15.2 percent complete. Average dt   0.014 seconds
 Time remaining  4 hours and  23 minutes
 Simulation  15.2 percent complete. Average dt   0.014 seconds
 Time remaining  4 hours and  27 minutes
 Simulation  15.2 percent complete. Average dt   0.014 seconds
 Time remaining  4 hours and  29 minutes
 Simulation  15.3 percent complete. Average dt   0.014 seconds
 Time remaining  4 hours and  15 minutes
 Simulation  15.3 percent complete. Average dt   0.014 seconds
 Time remaining  4 hours and  26 minutes
 Simulation  15.3 percent complete. Average dt   0.014 seconds
 Time remaining  4 hours and  27 minutes
 Simulation  15.3 percent complete. Average dt   0.014 seconds
 Time remaining  4 hours and  27 minutes
 Simulation  15.4 percent complete. Average dt   0.014 seconds
 Time remaining  4 hours and  28 minutes
 Simulation  15.4 percent complete. Average dt   0.014 seconds
 Time remaining  4 hours and  27 minutes
 Simulation  15.4 percent complete. Average dt   0.014 seconds
 Time remaining  4 hours and  28 minutes
 Simulation  15.4 percent complete. Average dt   0.014 seconds
 Time remaining  4 hours and  30 minutes
 Simulation  15.5 percent complete. Average dt   0.014 seconds
 Time remaining  4 hours and  31 minutes
 Simulation  15.5 percent complete. Average dt   0.014 seconds
 Time remaining  4 hours and  26 minutes
 Simulation  15.5 percent complete. Average dt   0.014 seconds
 Time remaining  4 hours and  25 minutes
 Simulation  15.5 percent complete. Average dt   0.014 seconds
 Time remaining  4 hours and  33 minutes
 Simulation  15.6 percent complete. Average dt   0.014 seconds
 Time remaining  4 hours and  28 minutes
 Simulation  15.6 percent complete. Average dt   0.014 seconds
 Time remaining  4 hours and  28 minutes
 Simulation  15.6 percent complete. Average dt   0.014 seconds
 Time remaining  4 hours and  29 minutes
 Simulation  15.6 percent complete. Average dt   0.014 seconds
 Time remaining  4 hours and  28 minutes
 Simulation  15.7 percent complete. Average dt   0.014 seconds
 Time remaining  4 hours and  26 minutes
 Simulation  15.7 percent complete. Average dt   0.014 seconds
 Time remaining  4 hours and  20 minutes
 Simulation  15.7 percent complete. Average dt   0.014 seconds
 Time remaining  4 hours and  27 minutes
 Simulation  15.7 percent complete. Average dt   0.014 seconds
 Time remaining  4 hours and  32 minutes
 Simulation  15.8 percent complete. Average dt   0.014 seconds
 Time remaining  4 hours and  27 minutes
 Simulation  15.8 percent complete. Average dt   0.014 seconds
 Time remaining  4 hours and  28 minutes
 Simulation  15.8 percent complete. Average dt   0.014 seconds
 Time remaining  4 hours and  27 minutes
 Simulation  15.8 percent complete. Average dt   0.014 seconds
 Time remaining  4 hours and  31 minutes
 Simulation  15.9 percent complete. Average dt   0.014 seconds
 Time remaining  4 hours and  26 minutes
 Simulation  15.9 percent complete. Average dt   0.014 seconds
 Time remaining  4 hours and  26 minutes
 Simulation  15.9 percent complete. Average dt   0.014 seconds
 Time remaining  4 hours and  25 minutes
 Simulation  15.9 percent complete. Average dt   0.014 seconds
 Time remaining  4 hours and  25 minutes
 Simulation  16.0 percent complete. Average dt   0.014 seconds
 Time remaining  4 hours and  28 minutes
 Simulation  16.0 percent complete. Average dt   0.014 seconds
 Time remaining  4 hours and  25 minutes
 Simulation  16.0 percent complete. Average dt   0.014 seconds
 Time remaining  4 hours and  22 minutes
 Simulation  16.0 percent complete. Average dt   0.014 seconds
 Time remaining  4 hours and  26 minutes
 Simulation  16.1 percent complete. Average dt   0.014 seconds
 Time remaining  4 hours and  25 minutes
 Simulation  16.1 percent complete. Average dt   0.014 seconds
 Time remaining  4 hours and  29 minutes
 Simulation  16.1 percent complete. Average dt   0.014 seconds
 Time remaining  4 hours and  29 minutes
 Simulation  16.1 percent complete. Average dt   0.014 seconds
 Time remaining  4 hours and  25 minutes
 Simulation  16.2 percent complete. Average dt   0.014 seconds
 Time remaining  4 hours and  23 minutes
 Simulation  16.2 percent complete. Average dt   0.014 seconds
 Time remaining  4 hours and  28 minutes
 Simulation  16.2 percent complete. Average dt   0.014 seconds
 Time remaining  4 hours and  29 minutes
 Simulation  16.2 percent complete. Average dt   0.014 seconds
 Time remaining  4 hours and  26 minutes
 Simulation  16.3 percent complete. Average dt   0.014 seconds
 Time remaining  4 hours and  25 minutes
 Simulation  16.3 percent complete. Average dt   0.014 seconds
 Time remaining  4 hours and  29 minutes
 Simulation  16.3 percent complete. Average dt   0.014 seconds
 Time remaining  4 hours and  32 minutes
 Simulation  16.3 percent complete. Average dt   0.014 seconds
 Time remaining  4 hours and  23 minutes
[...]
 Time remaining  17 minutes
 Simulation  97.3 percent complete. Average dt   0.014 seconds
 Time remaining  16 minutes
 Simulation  97.3 percent complete. Average dt   0.014 seconds
 Time remaining  17 minutes
 Simulation  97.3 percent complete. Average dt   0.014 seconds
 Time remaining  16 minutes
 Simulation  97.3 percent complete. Average dt   0.014 seconds
 Time remaining  17 minutes
 Simulation  97.3 percent complete. Average dt   0.014 seconds
 Time remaining  17 minutes
 Simulation  97.4 percent complete. Average dt   0.014 seconds
 Time remaining  16 minutes
 Simulation  97.4 percent complete. Average dt   0.014 seconds
 Time remaining  16 minutes
 Simulation  97.4 percent complete. Average dt   0.014 seconds
 Time remaining  17 minutes
 Simulation  97.4 percent complete. Average dt   0.014 seconds
 Time remaining  16 minutes
 Simulation  97.4 percent complete. Average dt   0.014 seconds
 Time remaining  16 minutes
 Simulation  97.4 percent complete. Average dt   0.014 seconds
 Time remaining  16 minutes
 Simulation  97.4 percent complete. Average dt   0.014 seconds
 Time remaining  15 minutes
 Simulation  97.4 percent complete. Average dt   0.014 seconds
 Time remaining  15 minutes
 Simulation  97.5 percent complete. Average dt   0.014 seconds
 Time remaining  15 minutes
 Simulation  97.5 percent complete. Average dt   0.014 seconds
 Time remaining  16 minutes
 Simulation  97.5 percent complete. Average dt   0.014 seconds
 Time remaining  15 minutes
 Simulation  97.5 percent complete. Average dt   0.014 seconds
 Time remaining  15 minutes
 Simulation  97.5 percent complete. Average dt   0.014 seconds
 Time remaining  15 minutes
 Simulation  97.5 percent complete. Average dt   0.014 seconds
 Time remaining  15 minutes
 Simulation  97.5 percent complete. Average dt   0.014 seconds
 Time remaining  15 minutes
 Simulation  97.5 percent complete. Average dt   0.014 seconds
 Time remaining  15 minutes
 Simulation  97.6 percent complete. Average dt   0.014 seconds
 Time remaining  15 minutes
 Simulation  97.6 percent complete. Average dt   0.014 seconds
 Time remaining  15 minutes
 Simulation  97.6 percent complete. Average dt   0.014 seconds
 Time remaining  15 minutes
 Simulation  97.6 percent complete. Average dt   0.014 seconds
 Time remaining  16 minutes
 Simulation  97.6 percent complete. Average dt   0.014 seconds
 Time remaining  15 minutes
 Simulation  97.6 percent complete. Average dt   0.014 seconds
 Time remaining  15 minutes
 Simulation  97.6 percent complete. Average dt   0.014 seconds
 Time remaining  15 minutes
 Simulation  97.6 percent complete. Average dt   0.014 seconds
 Time remaining  15 minutes
 Simulation  97.7 percent complete. Average dt   0.014 seconds
 Time remaining  15 minutes
 Simulation  97.7 percent complete. Average dt   0.014 seconds
 Time remaining  14 minutes
 Simulation  97.7 percent complete. Average dt   0.014 seconds
 Time remaining  14 minutes
 Simulation  97.7 percent complete. Average dt   0.014 seconds
 Time remaining  14 minutes
 Simulation  97.7 percent complete. Average dt   0.014 seconds
 Time remaining  14 minutes
 Simulation  97.7 percent complete. Average dt   0.014 seconds
 Time remaining  14 minutes
 Simulation  97.7 percent complete. Average dt   0.014 seconds
 Time remaining  14 minutes
 Simulation  97.7 percent complete. Average dt   0.014 seconds
 Time remaining  14 minutes
 Simulation  97.8 percent complete. Average dt   0.014 seconds
 Time remaining  13 minutes
 Simulation  97.8 percent complete. Average dt   0.014 seconds
 Time remaining  14 minutes
 Simulation  97.8 percent complete. Average dt   0.014 seconds
 Time remaining  13 minutes
 Simulation  97.8 percent complete. Average dt   0.014 seconds
 Time remaining  13 minutes
 Simulation  97.8 percent complete. Average dt   0.014 seconds
 Time remaining  13 minutes
 Simulation  97.8 percent complete. Average dt   0.014 seconds
 Time remaining  13 minutes
 Simulation  97.8 percent complete. Average dt   0.014 seconds
 Time remaining  12 minutes
 Simulation  97.9 percent complete. Average dt   0.014 seconds
 Time remaining  12 minutes
 Simulation  97.9 percent complete. Average dt   0.014 seconds
 Time remaining  12 minutes
 Simulation  97.9 percent complete. Average dt   0.014 seconds
 Time remaining  12 minutes
 Simulation  97.9 percent complete. Average dt   0.014 seconds
 Time remaining  11 minutes
 Simulation  97.9 percent complete. Average dt   0.014 seconds
 Time remaining  11 minutes
 Simulation  97.9 percent complete. Average dt   0.014 seconds
 Time remaining  12 minutes
 Simulation  97.9 percent complete. Average dt   0.014 seconds
 Time remaining  12 minutes
 Simulation  98.0 percent complete. Average dt   0.014 seconds
 Time remaining  11 minutes
 Simulation  98.0 percent complete. Average dt   0.014 seconds
 Time remaining  12 minutes
 Simulation  98.0 percent complete. Average dt   0.014 seconds
 Time remaining  12 minutes
 Simulation  98.0 percent complete. Average dt   0.014 seconds
 Time remaining  12 minutes
 Simulation  98.0 percent complete. Average dt   0.014 seconds
 Time remaining  12 minutes
 Simulation  98.0 percent complete. Average dt   0.014 seconds
 Time remaining  12 minutes
 Simulation  98.0 percent complete. Average dt   0.014 seconds
 Time remaining  11 minutes
 Simulation  98.1 percent complete. Average dt   0.014 seconds
 Time remaining  12 minutes
 Simulation  98.1 percent complete. Average dt   0.014 seconds
 Time remaining  11 minutes
 Simulation  98.1 percent complete. Average dt   0.014 seconds
 Time remaining  11 minutes
 Simulation  98.1 percent complete. Average dt   0.014 seconds
 Time remaining  11 minutes
 Simulation  98.1 percent complete. Average dt   0.014 seconds
 Time remaining  11 minutes
 Simulation  98.1 percent complete. Average dt   0.014 seconds
 Time remaining  11 minutes
 Simulation  98.1 percent complete. Average dt   0.014 seconds
 Time remaining  10 minutes
 Simulation  98.2 percent complete. Average dt   0.014 seconds
 Time remaining  10 minutes
 Simulation  98.2 percent complete. Average dt   0.014 seconds
 Time remaining  10 minutes
 Simulation  98.2 percent complete. Average dt   0.014 seconds
 Time remaining  10 minutes
 Simulation  98.2 percent complete. Average dt   0.014 seconds
 Time remaining  10 minutes
 Simulation  98.2 percent complete. Average dt   0.014 seconds
 Time remaining  10 minutes
 Simulation  98.2 percent complete. Average dt   0.014 seconds
 Time remaining  10 minutes
 Simulation  98.2 percent complete. Average dt   0.014 seconds
 Time remaining  10 minutes
 Simulation  98.3 percent complete. Average dt   0.014 seconds
 Time remaining  10 minutes
 Simulation  98.3 percent complete. Average dt   0.014 seconds
 Time remaining  10 minutes
 Simulation  98.3 percent complete. Average dt   0.014 seconds
 Time remaining  10 minutes
 Simulation  98.3 percent complete. Average dt   0.014 seconds
 Time remaining  10 minutes
 Simulation  98.3 percent complete. Average dt   0.014 seconds
 Time remaining  10 minutes
 Simulation  98.3 percent complete. Average dt   0.014 seconds
 Time remaining   9 minutes and  46 seconds
 Simulation  98.3 percent complete. Average dt   0.014 seconds
 Time remaining  10 minutes
 Simulation  98.4 percent complete. Average dt   0.014 seconds
 Time remaining  10 minutes
 Simulation  98.4 percent complete. Average dt   0.014 seconds
 Time remaining   9 minutes and  38 seconds
 Simulation  98.4 percent complete. Average dt   0.014 seconds
 Time remaining  10 minutes
 Simulation  98.4 percent complete. Average dt   0.014 seconds
 Time remaining   9 minutes and  50 seconds
 Simulation  98.4 percent complete. Average dt   0.014 seconds
 Time remaining   9 minutes and  59 seconds
 Simulation  98.4 percent complete. Average dt   0.014 seconds
 Time remaining   9 minutes and  50 seconds
 Simulation  98.4 percent complete. Average dt   0.014 seconds
 Time remaining   9 minutes and  11 seconds
 Simulation  98.4 percent complete. Average dt   0.014 seconds
 Time remaining   9 minutes and  37 seconds
 Simulation  98.5 percent complete. Average dt   0.014 seconds
 Time remaining   9 minutes and  30 seconds
 Simulation  98.5 percent complete. Average dt   0.014 seconds
 Time remaining   9 minutes and  33 seconds
 Simulation  98.5 percent complete. Average dt   0.014 seconds
 Time remaining   9 minutes and  15 seconds
 Simulation  98.5 percent complete. Average dt   0.014 seconds
 Time remaining   9 minutes and   6 seconds
 Simulation  98.5 percent complete. Average dt   0.014 seconds
 Time remaining   9 minutes and   2 seconds
 Simulation  98.5 percent complete. Average dt   0.014 seconds
 Time remaining   8 minutes and  42 seconds
 Simulation  98.5 percent complete. Average dt   0.014 seconds
 Time remaining   8 minutes and  39 seconds
 Simulation  98.6 percent complete. Average dt   0.014 seconds
 Time remaining   8 minutes and  43 seconds
 Simulation  98.6 percent complete. Average dt   0.014 seconds
 Time remaining   8 minutes and  48 seconds
 Simulation  98.6 percent complete. Average dt   0.014 seconds
 Time remaining   8 minutes and  42 seconds
 Simulation  98.6 percent complete. Average dt   0.014 seconds
 Time remaining   8 minutes and  42 seconds
 Simulation  98.6 percent complete. Average dt   0.014 seconds
 Time remaining   8 minutes and  21 seconds
 Simulation  98.6 percent complete. Average dt   0.014 seconds
 Time remaining   8 minutes and  18 seconds
 Simulation  98.6 percent complete. Average dt   0.014 seconds
 Time remaining   8 minutes and  25 seconds
 Simulation  98.6 percent complete. Average dt   0.014 seconds
 Time remaining   8 minutes and  21 seconds
 Simulation  98.7 percent complete. Average dt   0.014 seconds
 Time remaining   8 minutes and  13 seconds
 Simulation  98.7 percent complete. Average dt   0.014 seconds
 Time remaining   7 minutes and  53 seconds
 Simulation  98.7 percent complete. Average dt   0.014 seconds
 Time remaining   7 minutes and  36 seconds
 Simulation  98.7 percent complete. Average dt   0.014 seconds
 Time remaining   8 minutes and   3 seconds
 Simulation  98.7 percent complete. Average dt   0.014 seconds
 Time remaining   7 minutes and  50 seconds
 Simulation  98.7 percent complete. Average dt   0.014 seconds
 Time remaining   7 minutes and  52 seconds
 Simulation  98.7 percent complete. Average dt   0.014 seconds
 Time remaining   8 minutes and   4 seconds
 Simulation  98.8 percent complete. Average dt   0.014 seconds
 Time remaining   7 minutes and  19 seconds
 Simulation  98.8 percent complete. Average dt   0.014 seconds
 Time remaining   7 minutes and  26 seconds
 Simulation  98.8 percent complete. Average dt   0.014 seconds
 Time remaining   7 minutes and  13 seconds
 Simulation  98.8 percent complete. Average dt   0.014 seconds
 Time remaining   7 minutes and  18 seconds
 Simulation  98.8 percent complete. Average dt   0.014 seconds
 Time remaining   7 minutes and  16 seconds
 Simulation  98.8 percent complete. Average dt   0.014 seconds
 Time remaining   7 minutes and  10 seconds
 Simulation  98.8 percent complete. Average dt   0.014 seconds
 Time remaining   7 minutes and  10 seconds
 Simulation  98.9 percent complete. Average dt   0.014 seconds
 Time remaining   7 minutes and  13 seconds
 Simulation  98.9 percent complete. Average dt   0.014 seconds
 Time remaining   6 minutes and  58 seconds
 Simulation  98.9 percent complete. Average dt   0.014 seconds
 Time remaining   6 minutes and  49 seconds
 Simulation  98.9 percent complete. Average dt   0.014 seconds
 Time remaining   6 minutes and  51 seconds
 Simulation  98.9 percent complete. Average dt   0.014 seconds
 Time remaining   6 minutes and  38 seconds
 Simulation  98.9 percent complete. Average dt   0.014 seconds
 Time remaining   6 minutes and  37 seconds
 Simulation  98.9 percent complete. Average dt   0.014 seconds
 Time remaining   6 minutes and  19 seconds
 Simulation  98.9 percent complete. Average dt   0.014 seconds
 Time remaining   6 minutes and   6 seconds
 Simulation  99.0 percent complete. Average dt   0.014 seconds
 Time remaining   6 minutes and   3 seconds
 Simulation  99.0 percent complete. Average dt   0.014 seconds
 Time remaining   5 minutes and  55 seconds
 Simulation  99.0 percent complete. Average dt   0.014 seconds
 Time remaining   5 minutes and  50 seconds
 Simulation  99.0 percent complete. Average dt   0.014 seconds
 Time remaining   5 minutes and  56 seconds
 Simulation  99.0 percent complete. Average dt   0.014 seconds
 Time remaining   5 minutes and  46 seconds
 Simulation  99.0 percent complete. Average dt   0.014 seconds
 Time remaining   5 minutes and  42 seconds
 Simulation  99.0 percent complete. Average dt   0.014 seconds
 Time remaining   5 minutes and  42 seconds
 Simulation  99.1 percent complete. Average dt   0.014 seconds
 Time remaining   5 minutes and  37 seconds
 Simulation  99.1 percent complete. Average dt   0.014 seconds
 Time remaining   5 minutes and  30 seconds
 Simulation  99.1 percent complete. Average dt   0.014 seconds
 Time remaining   5 minutes and  29 seconds
 Simulation  99.1 percent complete. Average dt   0.014 seconds
 Time remaining   5 minutes and  15 seconds
 Simulation  99.1 percent complete. Average dt   0.014 seconds
 Time remaining   5 minutes and  15 seconds
 Simulation  99.1 percent complete. Average dt   0.014 seconds
 Time remaining   5 minutes and   6 seconds
 Simulation  99.1 percent complete. Average dt   0.014 seconds
 Time remaining   5 minutes and  26 seconds
 Simulation  99.2 percent complete. Average dt   0.014 seconds
 Time remaining   5 minutes and  14 seconds
 Simulation  99.2 percent complete. Average dt   0.014 seconds
 Time remaining   5 minutes and   3 seconds
 Simulation  99.2 percent complete. Average dt   0.014 seconds
 Time remaining   4 minutes and  50 seconds
 Simulation  99.2 percent complete. Average dt   0.014 seconds
 Time remaining   4 minutes and  49 seconds
 Simulation  99.2 percent complete. Average dt   0.014 seconds
 Time remaining   5 minutes and   0 seconds
 Simulation  99.2 percent complete. Average dt   0.014 seconds
 Time remaining   4 minutes and  34 seconds
 Simulation  99.2 percent complete. Average dt   0.014 seconds
 Time remaining   4 minutes and  35 seconds
 Simulation  99.3 percent complete. Average dt   0.014 seconds
 Time remaining   4 minutes and  32 seconds
 Simulation  99.3 percent complete. Average dt   0.014 seconds
 Time remaining   4 minutes and  22 seconds
 Simulation  99.3 percent complete. Average dt   0.014 seconds
 Time remaining   4 minutes and  18 seconds
 Simulation  99.3 percent complete. Average dt   0.014 seconds
 Time remaining   4 minutes and  15 seconds
 Simulation  99.3 percent complete. Average dt   0.014 seconds
 Time remaining   4 minutes and  10 seconds
 Simulation  99.3 percent complete. Average dt   0.014 seconds
 Time remaining   3 minutes and  57 seconds
 Simulation  99.3 percent complete. Average dt   0.014 seconds
 Time remaining   4 minutes and  15 seconds
 Simulation  99.4 percent complete. Average dt   0.014 seconds
 Time remaining   3 minutes and  50 seconds
 Simulation  99.4 percent complete. Average dt   0.014 seconds
 Time remaining   4 minutes and  48 seconds
 Simulation  99.4 percent complete. Average dt   0.014 seconds
 Time remaining   3 minutes and  39 seconds
 Simulation  99.4 percent complete. Average dt   0.014 seconds
 Time remaining   3 minutes and  34 seconds
 Simulation  99.4 percent complete. Average dt   0.014 seconds
 Time remaining   3 minutes and  30 seconds
 Simulation  99.4 percent complete. Average dt   0.014 seconds
 Time remaining   3 minutes and  26 seconds
 Simulation  99.4 percent complete. Average dt   0.014 seconds
 Time remaining   3 minutes and  23 seconds
 Simulation  99.4 percent complete. Average dt   0.014 seconds
 Time remaining   3 minutes and  11 seconds
 Simulation  99.5 percent complete. Average dt   0.014 seconds
 Time remaining   3 minutes and  11 seconds
 Simulation  99.5 percent complete. Average dt   0.014 seconds
 Time remaining   3 minutes and   6 seconds
 Simulation  99.5 percent complete. Average dt   0.014 seconds
 Time remaining   3 minutes and  24 seconds
 Simulation  99.5 percent complete. Average dt   0.014 seconds
 Time remaining   2 minutes and  48 seconds
 Simulation  99.5 percent complete. Average dt   0.014 seconds
 Time remaining   2 minutes and  42 seconds
 Simulation  99.5 percent complete. Average dt   0.014 seconds
 Time remaining   2 minutes and  40 seconds
 Simulation  99.5 percent complete. Average dt   0.014 seconds
 Time remaining   2 minutes and  40 seconds
 Simulation  99.6 percent complete. Average dt   0.014 seconds
 Time remaining   2 minutes and  28 seconds
 Simulation  99.6 percent complete. Average dt   0.014 seconds
 Time remaining   2 minutes and  59 seconds
 Simulation  99.6 percent complete. Average dt   0.014 seconds
 Time remaining   2 minutes and  23 seconds
 Simulation  99.6 percent complete. Average dt   0.014 seconds
 Time remaining   2 minutes and  18 seconds
 Simulation  99.6 percent complete. Average dt   0.014 seconds
 Time remaining   2 minutes and  16 seconds
 Simulation  99.6 percent complete. Average dt   0.014 seconds
 Time remaining   2 minutes and   8 seconds
 Simulation  99.6 percent complete. Average dt   0.014 seconds
 Time remaining   1 minutes and  59 seconds
 Simulation  99.7 percent complete. Average dt   0.014 seconds
 Time remaining   2 minutes and   0 seconds
 Simulation  99.7 percent complete. Average dt   0.014 seconds
 Time remaining   1 minutes and  58 seconds
 Simulation  99.7 percent complete. Average dt   0.014 seconds
 Time remaining   1 minutes and  44 seconds
 Simulation  99.7 percent complete. Average dt   0.014 seconds
 Time remaining   1 minutes and  42 seconds
 Simulation  99.7 percent complete. Average dt   0.014 seconds
 Time remaining   1 minutes and  39 seconds
 Simulation  99.7 percent complete. Average dt   0.014 seconds
 Time remaining   1 minutes and  33 seconds
 Simulation  99.7 percent complete. Average dt   0.014 seconds
 Time remaining   1 minutes and  30 seconds
 Simulation  99.8 percent complete. Average dt   0.014 seconds
 Time remaining   1 minutes and  24 seconds
 Simulation  99.8 percent complete. Average dt   0.014 seconds
 Time remaining   1 minutes and  19 seconds
 Simulation  99.8 percent complete. Average dt   0.014 seconds
 Time remaining   1 minutes and  12 seconds
 Simulation  99.8 percent complete. Average dt   0.014 seconds
 Time remaining   1 minutes and  11 seconds
 Simulation  99.8 percent complete. Average dt   0.014 seconds
 Time remaining   1 minutes and   1 seconds
 Simulation  99.8 percent complete. Average dt   0.014 seconds
 Time remaining  58 seconds
 Simulation  99.8 percent complete. Average dt   0.014 seconds
 Time remaining  56 seconds
 Simulation  99.9 percent complete. Average dt   0.014 seconds
 Time remaining  48 seconds
 Simulation  99.9 percent complete. Average dt   0.014 seconds
 Time remaining  46 seconds
 Simulation  99.9 percent complete. Average dt   0.014 seconds
 Time remaining  38 seconds
 Simulation  99.9 percent complete. Average dt   0.014 seconds
 Time remaining  31 seconds
 Simulation  99.9 percent complete. Average dt   0.014 seconds
 Time remaining  28 seconds
 Simulation  99.9 percent complete. Average dt   0.014 seconds
 Time remaining  23 seconds
 Simulation  99.9 percent complete. Average dt   0.014 seconds
 Time remaining  18 seconds
 Simulation 100.0 percent complete. Average dt   0.014 seconds
 Time remaining  14 seconds
 Simulation 100.0 percent complete. Average dt   0.014 seconds
 Time remaining   8 seconds
 Simulation 100.0 percent complete. Average dt   0.014 seconds
 Time remaining   3 seconds
  Duration   :    4303.3601429999999       seconds
  Timesteps  :       846874
  Average dt :    1.4283116496668927E-002  seconds
  Unit speed :    2.4197449865201737E-005  seconds/1
  End of program xbeach
