  **********************************************************
                     Welcome to XBeach
 
               version 1.23.Unversioned directory XBeachX BETA release
               dateThu Mar 22 21:16:36 PDT 2018
     URL:
  **********************************************************
 
  Simulation started: YYYYMMDD    hh:mm:ss     time zone (UTC)
                      20181018  22:39:45     -0700
 
    running in:/home/server/pi/homes/aellenso/Research/XBeach1/model/run/Hs1.25
  General Input Module
  Reading input parameters:
   XBeach reading fromparams.txt
  --------------------------------
  Backward compatibility:
                    instat =jons
  --------------------------------
  Physical processes:
                 wavemodel =surfbeat
                    cyclic =0 (no record found, default value used)
                     swave =1 (no record found, default value used)
                single_dir =0 (no record found, default value used)
                     lwave =1 (no record found, default value used)
                      flow =1 (no record found, default value used)
                  sedtrans =1 (no record found, default value used)
                morphology =1
               avalanching =1 (no record found, default value used)
                    gwflow =0 (no record found, default value used)
                     ships =0 (no record found, default value used)
                vegetation =0 (no record found, default value used)
                  setbathy =0 (no record found, default value used)
                 viscosity =1 (no record found, default value used)
                 advection =1 (no record found, default value used)
                      wind =1 (no record found, default value used)
  --------------------------------
  Grid parameters:
                  gridform =xbeach (no record found, default value used)
                      xori =.0000
                      yori =.0000
                      alfa =.0000
                        nx =98
                        ny =0
                    posdwn =.0000
                   depfile =bed.dep
                     vardx =1
                        dx =-1.0000 (no record found, default value used)
                        dy =-1.0000 (no record found, default value used)
                     xfile =x.grd
                     yfile =y.grd
                        nz =1 (no record found, default value used)
                  thetamin =.0000
                  thetamax =360.0000
                 thetanaut =1
                    dtheta =360.0000 Warning: value > recommended value of180.0000
  --------------------------------
  Model time parameters:
                       CFL =.7000 (no record found, default value used)
                     dtset =.0000 (no record found, default value used)
                     tstop =172800.0000
                  maxdtfac =50.0000 (no record found, default value used)
  --------------------------------
  Physical constants:
                       rho =1025.0000 (no record found, default value used)
                         g =9.8100 (no record found, default value used)
                depthscale =1.0000 (no record found, default value used)
  --------------------------------
  Initial conditions:
                zsinitfile = None specified
  --------------------------------
  Wave boundary condition parameters:
                   wbctype =parametric
                    bcfile =jonswap.txt
                     taper =100.0000 (no record found, default value used)
                      nmax =.8000 (no record found, default value used)
               lateralwave =neumann (no record found, default value used)
  --------------------------------
  Wave-spectrum boundary condition parameters:
                    random =0
                   fcutoff =.0000 (no record found, default value used)
                   trepfac =.0100 (no record found, default value used)
                   sprdthr =.0800 (no record found, default value used)
                Tm01switch =0 (no record found, default value used)
                        rt =172800.0000 Warning: value > recommended value of7200.0000
                      dtbc =1.0000
              nspectrumloc =1 (no record found, default value used)
  --------------------------------
  Flow boundary condition parameters:
                     front =abs_1d (no record found, default value used)
                      left =neumann (no record found, default value used)
                     right =neumann (no record found, default value used)
                      back =abs_1d (no record found, default value used)
                       ARC =1 (no record found, default value used)
                     order =2.0000 (no record found, default value used)
                  freewave =0 (no record found, default value used)
                      epsi =-1.0000 (no record found, default value used)
                  tidetype =velocity (no record found, default value used)
  --------------------------------
  Tide boundary conditions:
                   tideloc =1
                   zs0file =tides.txt
  --------------------------------
  Discharge boundary conditions:
            disch_loc_file = None specified
     disch_timeseries_file = None specified
                ndischarge =0 (no record found, default value used)
               ntdischarge =0 (no record found, default value used)
                      beta =.1000 (no record found, default value used)
  --------------------------------
  Wave breaking parameters:
                     break =roelvink2 (no record found, default value used)
                     gamma =.5500 (no record found, default value used)
                    gammax =2.0000 (no record found, default value used)
                     alpha =1.0000 (no record found, default value used)
                         n =10.0000 (no record found, default value used)
                     delta =.0000 (no record found, default value used)
                        fw =.0000 (no record found, default value used)
                    fwfile = None specified
                  fwcutoff =1000.0000 (no record found, default value used)
              breakerdelay =1.0000 (no record found, default value used)
  --------------------------------
  Roller parameters:
                    roller =1 (no record found, default value used)
                       rfb =0 (no record found, default value used)
  --------------------------------
  Wave-current interaction parameters:
                       wci =0 (no record found, default value used)
                      hwci =.1000 (no record found, default value used)
                   hwcimax =100.0000 (no record found, default value used)
                      cats =4.0000 (no record found, default value used)
  --------------------------------
  Flow parameters:
               bedfriction =chezy (no record found, default value used)
               bedfricfile = None specified
               bedfriccoef =55.0000 (no record found, default value used)
                       nuh =.1000 (no record found, default value used)
                    nuhfac =1.0000 (no record found, default value used)
                      smag =1 (no record found, default value used)
  --------------------------------
  Coriolis force parameters:
                    wearth =.0417 (no record found, default value used)
                       lat =.0000 (no record found, default value used)
  --------------------------------
  Wind parameters:
                      rhoa =1.2500 (no record found, default value used)
                        Cd =.0020 (no record found, default value used)
                  windfile = None specified
                     windv =.0000 (no record found, default value used)
                    windth =270.0000 (no record found, default value used)
  --------------------------------
  Sediment transport parameters:
                      form =vanthiel_vanrijn (no record found, default value used)
                  waveform =vanthiel (no record found, default value used)
                       sws =1 (no record found, default value used)
                       lws =1 (no record found, default value used)
                     BRfac =1.0000 (no record found, default value used)
                     facua =.1000 (no record found, default value used)
                     facSk =.1000 (no record found, default value used)
                     facAs =.1000 (no record found, default value used)
                     Tbfac =1.0000 (no record found, default value used)
                      turb =bore_averaged (no record found, default value used)
                   turbadv =none (no record found, default value used)
                       sus =1 (no record found, default value used)
                       bed =1 (no record found, default value used)
                      bulk =0 (no record found, default value used)
                     facsl =1.6000 (no record found, default value used)
                        z0 =.0060 (no record found, default value used)
                      smax =-1.0000 (no record found, default value used)
               bdslpeffmag =roelvink_total (no record found, default value used)
               bdslpeffini =none (no record found, default value used)
               bdslpeffdir =none (no record found, default value used)
               reposeangle =30.0000 (no record found, default value used)
                     tsfac =.1000 (no record found, default value used)
                     Tsmin =.5000 (no record found, default value used)
                     facDc =1.0000 (no record found, default value used)
                       lwt =0 (no record found, default value used)
                     betad =1.0000 (no record found, default value used)
                fallvelred =0 (no record found, default value used)
                 dilatancy =0 (no record found, default value used)
  --------------------------------
  Bed composition parameters:
                       ngd =1 (no record found, default value used)
                        nd =3 (no record found, default value used)
                       por =.4000 (no record found, default value used)
   D50 =.0002 (no record found, default value used)
   D90 =.0003 (no record found, default value used)
                      rhos =2650.0000 (no record found, default value used)
                       dzg =.1000 (no record found, default value used)
                      dzg1 =.1000 (no record found, default value used)
                      dzg2 =.1000 (no record found, default value used)
                      dzg3 =.1000 (no record found, default value used)
   sedcal =1.0000 (no record found, default value used)
   ucrcal =1.0000 (no record found, default value used)
  --------------------------------
  Morphology parameters:
                    morfac =3.0000
                 morfacopt =1 (no record found, default value used)
                  morstart =.0000 (no record found, default value used)
                   morstop =172800.0000 (no record found, default value used)
                    wetslp =.3000 (no record found, default value used)
                    dryslp =1.0000 (no record found, default value used)
                   hswitch =.1000 (no record found, default value used)
                     dzmax =.0500 (no record found, default value used)
                    struct =0 (no record found, default value used)
  --------------------------------
  Output variables:
                   timings =1 (no record found, default value used)
                    tunits = None specified
                    tstart =.0000
                      tint =1.0000 (no record found, default value used)
                  tsglobal = None specified
                     tintg =500.0000
                  tspoints = None specified
                     tintp =1.0000 (no record found, default value used)
                    tsmean = None specified
                     tintm =3600.0000
                nglobalvar =3
   nglobalvar: Will generate global output for variable:zb
   nglobalvar: Will generate global output for variable:H
   nglobalvar: Will generate global output for variable:u
                   npoints =2
                  nrugauge =0 (no record found, default value used)
                 npointvar =2
   Output pointoffshore xpoint:.00   ypoint:.00
   Output pointbar xpoint:200.00   ypoint:.00
   npointvar: Will generate point output for variable:zs
   npointvar: Will generate point output for variable:H
  Order of point output variables stored in 'pointvars.idx'
                 nrugdepth =1 (no record found, default value used)
   rugdepth =.0000 (no record found, default value used)
                  nmeanvar =3
   nmeanvar: Will generate mean, min, max and variance output for variable:zb
   nmeanvar: Will generate mean, min, max and variance output for variable:H
   nmeanvar: Will generate mean, min, max and variance output for variable:u
              outputformat =netcdf
           outputprecision =double (no record found, default value used)
                ncfilename = None specified
  netcdf output to:xboutput.nc
              remdryoutput =1 (no record found, default value used)
  --------------------------------
  Output projection:
                projection = None specified
                    rotate =1 (no record found, default value used)
  --------------------------------
  Wave numerics parameters:
                    scheme =warmbeam (no record found, default value used)
                    snells =1 (no record found, default value used)
  --------------------------------
  Flow numerics parameters:
                       eps =.0050 (no record found, default value used)
                    eps_sd =.5000 (no record found, default value used)
                      umin =.0000 (no record found, default value used)
                      hmin =.2000 (no record found, default value used)
                  secorder =-123 (no record found, default value used)
  --------------------------------
  Sediment transport numerics parameters:
                  thetanum =1.0000 (no record found, default value used)
                sourcesink =0 (no record found, default value used)
                      cmax =.1000 (no record found, default value used)
  --------------------------------
  Bed update numerics parameters:
                   frac_dz =.7000 (no record found, default value used)
                    nd_var =2 (no record found, default value used)
                     split =1.0100 (no record found, default value used)
                     merge =.0100 (no record found, default value used)
  --------------------------------
  Finished reading input parameters
  --------------------------------
  ------------------------------------
  Building Grid and Bathymetry
  ------------------------------------
  Initializing .....
   readtide: reading tide time series fromtides.txt ...
  --------------------------------
  Initializing spectral wave boundary conditions
  --------------------------------
 Distance output point001(.00,.00) to gridpoint(1,1): .00 m
 Distance output point002(200.00,.00) to gridpoint(19,1): .92 m
  NetCDF outputformat
   Creating netcdf variable:zb
   Creating netcdf variable:H
   Creating netcdf variable:u
   Creating netcdf variable:point_zs
   Creating netcdf variable:point_H
   Creating netcdf variable:zb_mean
   Creating netcdf variable:zb_var
   Creating netcdf variable:zb_min
   Creating netcdf variable:zb_max
   Creating netcdf variable:H_mean
   Creating netcdf variable:H_var
   Creating netcdf variable:H_min
   Creating netcdf variable:H_max
   Creating netcdf variable:u_mean
   Creating netcdf variable:u_var
   Creating netcdf variable:u_min
   Creating netcdf variable:u_max
  Writing file definition.
  Writing point vars.
  Setting up boundary conditions
  --------------------------------
  Calculating spectral wave boundary conditions
  --------------------------------
  Reading spectrum at location1
   waveparams: Reading from:jonswap.txt ...
   XBeach reading fromjonswap.txt
                    nmodal =1 (no record found, default value used)
                       Hm0 =1.2500
                        fp =.1000
                  gammajsp =3.3000
                         s =20.0000
   tma =0 (no record found, default value used)
                   mainang =270.0000
                      fnyq =1.0000
                       dfj =.0050 (no record found, default value used)
  Interpreting spectrum at location1
  Values calculated from interpolated spectrum:
  Hm0       =1.25 m
  Trep      =9.15 s
  Mean dir  =270.41 degN
  Overall Trep from all spectra calculated:9.15 s
  Calculating Fourier components
  5.0% done
  10.0% done
  15.0% done
  20.0% done
  25.0% done
  30.0% done
  35.0% done
  40.0% done
  45.0% done
  50.0% done
  55.0% done
  60.0% done
  65.0% done
  70.0% done
  75.0% done
  80.0% done
  85.0% done
  90.0% done
  95.0% done
  100.0% done
  Wave energy outside computational domain at offshore boundary:.0%
  Calculating short wave time series for theta bin1 of1
  Y-point1 of1 done.
  Wave bin1 contains100.00% of total energy
   Writing wave energy toE_reuse.bcf ...
  file done
  Calculating primary wave interaction
  .1% done
  .3% done
  .4% done
  .5% done
  .6% done
  .7% done
  .9% done
  1.0% done
  1.1% done
  1.2% done
  1.3% done
  1.5% done
  1.6% done
  1.7% done
  1.8% done
  2.0% done
  2.1% done
  2.2% done
  2.3% done
  2.4% done
  2.6% done
  2.7% done
  2.8% done
  2.9% done
  3.0% done
  3.2% done
  3.3% done
  3.4% done
  3.5% done
  3.6% done
  3.8% done
  3.9% done
  4.0% done
  4.1% done
  4.2% done
  4.4% done
  4.5% done
  4.6% done
  4.7% done
  4.8% done
  4.9% done
  5.0% done
  5.1% done
  5.2% done
  5.3% done
  5.4% done
  5.5% done
  5.6% done
  5.7% done
  5.8% done
  5.9% done
  6.0% done
  6.1% done
  6.2% done
  6.3% done
  6.4% done
  6.5% done
  6.6% done
  6.7% done
  6.8% done
  6.9% done
  7.0% done
  7.1% done
  7.2% done
  7.3% done
  7.4% done
  7.5% done
  7.6% done
  7.7% done
  7.9% done
  8.0% done
  8.1% done
  8.2% done
  8.3% done
  8.4% done
  8.5% done
  8.6% done
  8.7% done
  8.8% done
  8.9% done
  9.0% done
  9.1% done
  9.2% done
  9.3% done
  9.4% done
  9.5% done
  9.6% done
  9.7% done
  9.8% done
  9.9% done
  10.0% done
  10.1% done
  10.2% done
  10.3% done
  10.4% done
  10.5% done
  10.6% done
  10.7% done
  10.8% done
  10.9% done
  11.0% done
  11.1% done
  11.2% done
  11.3% done
  11.4% done
  11.5% done
  11.6% done
  11.7% done
  11.8% done
  11.9% done
  12.0% done
  12.1% done
  12.2% done
  12.3% done
  12.4% done
  12.5% done
  12.6% done
  12.7% done
  12.8% done
  12.9% done
  13.0% done
  13.1% done
  13.2% done
  13.3% done
  13.4% done
  13.5% done
  13.6% done
  13.7% done
  13.8% done
  13.9% done
  14.0% done
  14.1% done
  14.2% done
  14.3% done
  14.4% done
  14.5% done
  14.5% done
  14.6% done
  14.7% done
  14.8% done
  14.9% done
  15.0% done
  15.0% done
  15.1% done
  15.2% done
  15.3% done
  15.4% done
  15.4% done
  15.5% done
  15.6% done
  15.7% done
  15.8% done
  15.8% done
  15.9% done
  16.0% done
  16.1% done
  16.2% done
  16.2% done
  16.3% done
  16.4% done
  16.5% done
  16.6% done
  16.6% done
  16.7% done
  16.8% done
  16.9% done
  17.0% done
  17.0% done
  17.1% done
  17.2% done
  17.3% done
  17.4% done
  17.5% done
  17.5% done
  17.6% done
  17.7% done
  17.8% done
  17.9% done
  17.9% done
  18.0% done
  18.1% done
  18.2% done
  18.3% done
  18.3% done
  18.4% done
  18.5% done
  18.6% done
  18.7% done
  18.7% done
  18.8% done
  18.9% done
  19.0% done
  19.1% done
  19.1% done
  19.2% done
  19.3% done
  19.4% done
  19.5% done
  19.5% done
  19.6% done
  19.7% done
  19.8% done
  19.9% done
  19.9% done
  20.0% done
  20.1% done
  20.2% done
  20.3% done
  20.4% done
  20.4% done
  20.5% done
  20.6% done
  20.7% done
  20.8% done
  20.8% done
  20.9% done
  21.0% done
  21.1% done
  21.2% done
  21.2% done
  21.3% done
  21.4% done
  21.5% done
  21.6% done
  21.6% done
  21.7% done
  21.8% done
  21.9% done
  22.0% done
  22.0% done
  22.1% done
  22.2% done
  22.3% done
  22.4% done
  22.4% done
  22.5% done
  22.6% done
  22.7% done
  22.8% done
  22.8% done
  22.9% done
  23.0% done
  23.1% done
  23.2% done
  23.2% done
  23.3% done
  23.4% done
  23.5% done
  23.6% done
  23.7% done
  23.7% done
  23.8% done
  23.9% done
  24.0% done
  24.1% done
  24.1% done
  24.2% done
  24.3% done
  24.4% done
  24.5% done
  24.5% done
  24.6% done
  24.7% done
  24.8% done
  24.9% done
  24.9% done
  25.0% done
  25.1% done
  25.2% done
  25.3% done
  25.3% done
  25.4% done
  25.5% done
  25.6% done
  25.7% done
  25.7% done
  25.8% done
  25.9% done
  26.0% done
  26.1% done
  26.1% done
  26.2% done
  26.3% done
  26.4% done
  26.5% done
  26.5% done
  26.6% done
  26.7% done
  26.8% done
  26.9% done
  27.0% done
  27.0% done
  27.1% done
  27.2% done
  27.3% done
  27.4% done
  27.4% done
  27.5% done
  27.6% done
  27.7% done
  27.8% done
  27.8% done
  27.9% done
  28.0% done
  28.1% done
  28.2% done
  28.2% done
  28.3% done
  28.4% done
  28.5% done
  28.6% done
  28.6% done
  28.7% done
  28.8% done
  28.9% done
  29.0% done
  29.0% done
  29.1% done
  29.2% done
  29.3% done
  29.4% done
  29.4% done
  29.5% done
  29.6% done
  29.7% done
  29.8% done
  29.9% done
  29.9% done
  30.0% done
  30.1% done
  30.2% done
  30.3% done
  30.3% done
  30.4% done
  30.5% done
  30.6% done
  30.7% done
  30.7% done
  30.8% done
  30.9% done
  31.0% done
  31.1% done
  31.1% done
  31.2% done
  31.3% done
  31.4% done
  31.4% done
  31.5% done
  31.5% done
  31.6% done
  31.7% done
  31.7% done
  31.8% done
  31.8% done
  31.9% done
  32.0% done
  32.0% done
  32.1% done
  32.1% done
  32.2% done
  32.3% done
  32.3% done
  32.4% done
  32.4% done
  32.5% done
  32.6% done
  32.6% done
  32.7% done
  32.7% done
  32.8% done
  32.9% done
  32.9% done
  33.0% done
  33.1% done
  33.1% done
  33.2% done
  33.2% done
  33.3% done
  33.4% done
  33.4% done
  33.5% done
  33.5% done
  33.6% done
  33.7% done
  33.7% done
  33.8% done
  33.8% done
  33.9% done
  34.0% done
  34.0% done
  34.1% done
  34.1% done
  34.2% done
  34.3% done
  34.3% done
  34.4% done
  34.4% done
  34.5% done
  34.6% done
  34.6% done
  34.7% done
  34.7% done
  34.8% done
  34.9% done
  34.9% done
  35.0% done
  35.0% done
  35.1% done
  35.2% done
  35.2% done
  35.3% done
  35.3% done
  35.4% done
  35.5% done
  35.5% done
  35.6% done
  35.6% done
  35.7% done
  35.8% done
  35.8% done
  35.9% done
  36.0% done
  36.0% done
  36.1% done
  36.1% done
  36.2% done
  36.3% done
  36.3% done
  36.4% done
  36.4% done
  36.5% done
  36.6% done
  36.6% done
  36.7% done
  36.7% done
  36.8% done
  36.9% done
  36.9% done
  37.0% done
  37.0% done
  37.1% done
  37.2% done
  37.2% done
  37.3% done
  37.3% done
  37.4% done
  37.5% done
  37.5% done
  37.6% done
  37.6% done
  37.7% done
  37.8% done
  37.8% done
  37.9% done
  37.9% done
  38.0% done
  38.1% done
  38.1% done
  38.2% done
  38.2% done
  38.3% done
  38.4% done
  38.4% done
  38.5% done
  38.5% done
  38.6% done
  38.7% done
  38.7% done
  38.8% done
  38.8% done
  38.9% done
  39.0% done
  39.0% done
  39.1% done
  39.2% done
  39.2% done
  39.3% done
  39.3% done
  39.4% done
  39.5% done
  39.5% done
  39.6% done
  39.6% done
  39.7% done
  39.8% done
  39.8% done
  39.9% done
  39.9% done
  40.0% done
  40.1% done
  40.1% done
  40.2% done
  40.2% done
  40.3% done
  40.4% done
  40.4% done
  40.5% done
  40.5% done
  40.6% done
  40.7% done
  40.7% done
  40.8% done
  40.8% done
  40.9% done
  41.0% done
  41.0% done
  41.1% done
  41.1% done
  41.2% done
  41.3% done
  41.3% done
  41.4% done
  41.4% done
  41.5% done
  41.6% done
  41.6% done
  41.7% done
  41.7% done
  41.8% done
  41.9% done
  41.9% done
  42.0% done
  42.0% done
  42.1% done
  42.2% done
  42.2% done
  42.3% done
  42.4% done
  42.4% done
  42.5% done
  42.5% done
  42.6% done
  42.7% done
  42.7% done
  42.8% done
  42.8% done
  42.9% done
  43.0% done
  43.0% done
  43.1% done
  43.1% done
  43.2% done
  43.3% done
  43.3% done
  43.4% done
  43.4% done
  43.5% done
  43.6% done
  43.6% done
  43.7% done
  43.7% done
  43.8% done
  43.9% done
  43.9% done
  44.0% done
  44.0% done
  44.1% done
  44.2% done
  44.2% done
  44.3% done
  44.3% done
  44.4% done
  44.5% done
  44.5% done
  44.6% done
  44.6% done
  44.7% done
  44.8% done
  44.8% done
  44.9% done
  44.9% done
  45.0% done
  45.1% done
  45.1% done
  45.2% done
  45.2% done
  45.3% done
  45.4% done
  45.4% done
  45.5% done
  45.6% done
  45.6% done
  45.7% done
  45.7% done
  45.8% done
  45.9% done
  45.9% done
  46.0% done
  46.0% done
  46.1% done
  46.2% done
  46.2% done
  46.3% done
  46.3% done
  46.4% done
  46.5% done
  46.5% done
  46.6% done
  46.6% done
  46.7% done
  46.8% done
  46.8% done
  46.9% done
  46.9% done
  47.0% done
  47.1% done
  47.1% done
  47.2% done
  47.2% done
  47.3% done
  47.4% done
  47.4% done
  47.5% done
  47.5% done
  47.6% done
  47.7% done
  47.7% done
  47.8% done
  47.8% done
  47.9% done
  48.0% done
  48.0% done
  48.1% done
  48.1% done
  48.2% done
  48.3% done
  48.3% done
  48.4% done
  48.5% done
  48.5% done
  48.6% done
  48.6% done
  48.7% done
  48.8% done
  48.8% done
  48.9% done
  48.9% done
  49.0% done
  49.1% done
  49.1% done
  49.2% done
  49.2% done
  49.3% done
  49.4% done
  49.4% done
  49.5% done
  49.5% done
  49.6% done
  49.7% done
  49.7% done
  49.8% done
  49.8% done
  49.9% done
  50.0% done
  50.0% done
  50.1% done
  50.1% done
  50.2% done
  50.3% done
  50.3% done
  50.4% done
  50.4% done
  50.5% done
  50.6% done
  50.6% done
  50.7% done
  50.7% done
  50.8% done
  50.9% done
  50.9% done
  51.0% done
  51.0% done
  51.1% done
  51.2% done
  51.2% done
  51.3% done
  51.3% done
  51.4% done
  51.5% done
  51.5% done
  51.6% done
  51.7% done
  51.7% done
  51.8% done
  51.8% done
  51.9% done
  52.0% done
  52.0% done
  52.1% done
  52.1% done
  52.2% done
  52.3% done
  52.3% done
  52.4% done
  52.4% done
  52.5% done
  52.6% done
  52.6% done
  52.7% done
  52.7% done
  52.8% done
  52.9% done
  52.9% done
  53.0% done
  53.0% done
  53.1% done
  53.2% done
  53.2% done
  53.3% done
  53.3% done
  53.4% done
  53.5% done
  53.5% done
  53.6% done
  53.6% done
  53.7% done
  53.8% done
  53.8% done
  53.9% done
  53.9% done
  54.0% done
  54.1% done
  54.1% done
  54.2% done
  54.2% done
  54.3% done
  54.4% done
  54.4% done
  54.5% done
  54.5% done
  54.6% done
  54.7% done
  54.7% done
  54.8% done
  54.9% done
  54.9% done
  55.0% done
  55.0% done
  55.1% done
  55.2% done
  55.2% done
  55.3% done
  55.3% done
  55.4% done
  55.5% done
  55.5% done
  55.6% done
  55.6% done
  55.7% done
  55.8% done
  55.8% done
  55.9% done
  55.9% done
  56.0% done
  56.1% done
  56.1% done
  56.2% done
  56.2% done
  56.3% done
  56.4% done
  56.4% done
  56.5% done
  56.5% done
  56.6% done
  56.7% done
  56.7% done
  56.8% done
  56.8% done
  56.9% done
  57.0% done
  57.0% done
  57.1% done
  57.1% done
  57.2% done
  57.3% done
  57.3% done
  57.4% done
  57.4% done
  57.5% done
  57.6% done
  57.6% done
  57.7% done
  57.7% done
  57.8% done
  57.9% done
  57.9% done
  58.0% done
  58.1% done
  58.1% done
  58.2% done
  58.2% done
  58.3% done
  58.4% done
  58.4% done
  58.5% done
  58.5% done
  58.6% done
  58.7% done
  58.7% done
  58.8% done
  58.8% done
  58.9% done
  59.0% done
  59.0% done
  59.1% done
  59.1% done
  59.2% done
  59.3% done
  59.3% done
  59.4% done
  59.4% done
  59.5% done
  59.6% done
  59.6% done
  59.7% done
  59.7% done
  59.8% done
  59.9% done
  59.9% done
  60.0% done
  60.0% done
  60.1% done
  60.2% done
  60.2% done
  60.3% done
  60.3% done
  60.4% done
  60.5% done
  60.5% done
  60.6% done
  60.6% done
  60.7% done
  60.8% done
  60.8% done
  60.9% done
  61.0% done
  61.0% done
  61.1% done
  61.1% done
  61.2% done
  61.3% done
  61.3% done
  61.4% done
  61.4% done
  61.5% done
  61.6% done
  61.6% done
  61.7% done
  61.7% done
  61.8% done
  61.9% done
  61.9% done
  62.0% done
  62.0% done
  62.1% done
  62.2% done
  62.2% done
  62.3% done
  62.3% done
  62.4% done
  62.5% done
  62.5% done
  62.6% done
  62.6% done
  62.7% done
  62.8% done
  62.8% done
  62.9% done
  62.9% done
  63.0% done
  63.1% done
  63.1% done
  63.2% done
  63.2% done
  63.3% done
  63.4% done
  63.4% done
  63.5% done
  63.5% done
  63.6% done
  63.7% done
  63.7% done
  63.8% done
  63.8% done
  63.9% done
  64.0% done
  64.0% done
  64.1% done
  64.2% done
  64.2% done
  64.3% done
  64.3% done
  64.4% done
  64.5% done
  64.5% done
  64.6% done
  64.6% done
  64.7% done
  64.8% done
  64.8% done
  64.9% done
  64.9% done
  65.0% done
  65.1% done
  65.1% done
  65.2% done
  65.2% done
  65.3% done
  65.4% done
  65.4% done
  65.5% done
  65.5% done
  65.6% done
  65.7% done
  65.7% done
  65.8% done
  65.8% done
  65.9% done
  66.0% done
  66.0% done
  66.1% done
  66.1% done
  66.2% done
  66.3% done
  66.3% done
  66.4% done
  66.4% done
  66.5% done
  66.6% done
  66.6% done
  66.7% done
  66.7% done
  66.8% done
  66.9% done
  66.9% done
  67.0% done
  67.0% done
  67.1% done
  67.2% done
  67.2% done
  67.3% done
  67.4% done
  67.4% done
  67.5% done
  67.5% done
  67.6% done
  67.7% done
  67.7% done
  67.8% done
  67.8% done
  67.9% done
  68.0% done
  68.0% done
  68.1% done
  68.1% done
  68.2% done
  68.3% done
  68.3% done
  68.4% done
  68.4% done
  68.5% done
  68.6% done
  68.6% done
  68.7% done
  68.7% done
  68.8% done
  68.9% done
  68.9% done
  69.0% done
  69.0% done
  69.1% done
  69.2% done
  69.2% done
  69.3% done
  69.3% done
  69.4% done
  69.5% done
  69.5% done
  69.6% done
  69.6% done
  69.7% done
  69.8% done
  69.8% done
  69.9% done
  69.9% done
  70.0% done
  70.1% done
  70.1% done
  70.2% done
  70.2% done
  70.3% done
  70.4% done
  70.4% done
  70.5% done
  70.6% done
  70.6% done
  70.7% done
  70.7% done
  70.8% done
  70.9% done
  70.9% done
  71.0% done
  71.0% done
  71.1% done
  71.2% done
  71.2% done
  71.3% done
  71.3% done
  71.4% done
  71.5% done
  71.5% done
  71.6% done
  71.6% done
  71.7% done
  71.8% done
  71.8% done
  71.9% done
  71.9% done
  72.0% done
  72.1% done
  72.1% done
  72.2% done
  72.2% done
  72.3% done
  72.4% done
  72.4% done
  72.5% done
  72.5% done
  72.6% done
  72.7% done
  72.7% done
  72.8% done
  72.8% done
  72.9% done
  73.0% done
  73.0% done
  73.1% done
  73.1% done
  73.2% done
  73.3% done
  73.3% done
  73.4% done
  73.5% done
  73.5% done
  73.6% done
  73.6% done
  73.7% done
  73.8% done
  73.8% done
  73.9% done
  73.9% done
  74.0% done
  74.1% done
  74.1% done
  74.2% done
  74.2% done
  74.3% done
  74.4% done
  74.4% done
  74.5% done
  74.5% done
  74.6% done
  74.7% done
  74.7% done
  74.8% done
  74.8% done
  74.9% done
  75.0% done
  75.0% done
  75.1% done
  75.1% done
  75.2% done
  75.3% done
  75.3% done
  75.4% done
  75.4% done
  75.5% done
  75.6% done
  75.6% done
  75.7% done
  75.7% done
  75.8% done
  75.9% done
  75.9% done
  76.0% done
  76.0% done
  76.1% done
  76.2% done
  76.2% done
  76.3% done
  76.3% done
  76.4% done
  76.5% done
  76.5% done
  76.6% done
  76.7% done
  76.7% done
  76.8% done
  76.8% done
  76.9% done
  77.0% done
  77.0% done
  77.1% done
  77.1% done
  77.2% done
  77.3% done
  77.3% done
  77.4% done
  77.4% done
  77.5% done
  77.6% done
  77.6% done
  77.7% done
  77.7% done
  77.8% done
  77.9% done
  77.9% done
  78.0% done
  78.0% done
  78.1% done
  78.2% done
  78.2% done
  78.3% done
  78.3% done
  78.4% done
  78.5% done
  78.5% done
  78.6% done
  78.6% done
  78.7% done
  78.8% done
  78.8% done
  78.9% done
  78.9% done
  79.0% done
  79.1% done
  79.1% done
  79.2% done
  79.2% done
  79.3% done
  79.4% done
  79.4% done
  79.5% done
  79.5% done
  79.6% done
  79.7% done
  79.7% done
  79.8% done
  79.9% done
  79.9% done
  80.0% done
  80.0% done
  80.1% done
  80.2% done
  80.2% done
  80.3% done
  80.3% done
  80.4% done
  80.5% done
  80.5% done
  80.6% done
  80.6% done
  80.7% done
  80.8% done
  80.8% done
  80.9% done
  80.9% done
  81.0% done
  81.1% done
  81.1% done
  81.2% done
  81.2% done
  81.3% done
  81.4% done
  81.4% done
  81.5% done
  81.5% done
  81.6% done
  81.7% done
  81.7% done
  81.8% done
  81.8% done
  81.9% done
  82.0% done
  82.0% done
  82.1% done
  82.1% done
  82.2% done
  82.3% done
  82.3% done
  82.4% done
  82.4% done
  82.5% done
  82.6% done
  82.6% done
  82.7% done
  82.7% done
  82.8% done
  82.9% done
  82.9% done
  83.0% done
  83.1% done
  83.1% done
  83.2% done
  83.2% done
  83.3% done
  83.4% done
  83.4% done
  83.5% done
  83.5% done
  83.6% done
  83.7% done
  83.7% done
  83.8% done
  83.8% done
  83.9% done
  84.0% done
  84.0% done
  84.1% done
  84.1% done
  84.2% done
  84.3% done
  84.3% done
  84.4% done
  84.4% done
  84.5% done
  84.5% done
  84.6% done
  84.7% done
  84.7% done
  84.8% done
  84.8% done
  84.9% done
  85.0% done
  85.0% done
  85.1% done
  85.1% done
  85.2% done
  85.2% done
  85.3% done
  85.4% done
  85.4% done
  85.5% done
  85.5% done
  85.6% done
  85.7% done
  85.7% done
  85.8% done
  85.8% done
  85.9% done
  86.0% done
  86.0% done
  86.1% done
  86.1% done
  86.2% done
  86.3% done
  86.3% done
  86.4% done
  86.4% done
  86.5% done
  86.5% done
  86.6% done
  86.7% done
  86.7% done
  86.8% done
  86.8% done
  86.9% done
  87.0% done
  87.0% done
  87.1% done
  87.1% done
  87.2% done
  87.2% done
  87.3% done
  87.4% done
  87.4% done
  87.5% done
  87.5% done
  87.6% done
  87.7% done
  87.7% done
  87.8% done
  87.8% done
  87.9% done
  87.9% done
  88.0% done
  88.1% done
  88.1% done
  88.2% done
  88.2% done
  88.3% done
  88.4% done
  88.4% done
  88.5% done
  88.5% done
  88.6% done
  88.6% done
  88.7% done
  88.8% done
  88.8% done
  88.9% done
  88.9% done
  89.0% done
  89.1% done
  89.1% done
  89.2% done
  89.3% done
  89.3% done
  89.4% done
  89.4% done
  89.4% done
  89.5% done
  89.5% done
  89.6% done
  89.7% done
  89.7% done
  89.8% done
  89.8% done
  89.9% done
  89.9% done
  89.9% done
  90.0% done
  90.0% done
  90.1% done
  90.1% done
  90.1% done
  90.2% done
  90.2% done
  90.3% done
  90.3% done
  90.3% done
  90.4% done
  90.4% done
  90.5% done
  90.5% done
  90.5% done
  90.6% done
  90.6% done
  90.7% done
  90.7% done
  90.7% done
  90.8% done
  90.8% done
  90.9% done
  90.9% done
  90.9% done
  91.0% done
  91.0% done
  91.1% done
  91.1% done
  91.1% done
  91.2% done
  91.2% done
  91.3% done
  91.3% done
  91.3% done
  91.4% done
  91.4% done
  91.5% done
  91.5% done
  91.5% done
  91.6% done
  91.6% done
  91.7% done
  91.7% done
  91.7% done
  91.8% done
  91.8% done
  91.9% done
  91.9% done
  91.9% done
  92.0% done
  92.0% done
  92.1% done
  92.1% done
  92.1% done
  92.2% done
  92.2% done
  92.3% done
  92.3% done
  92.4% done
  92.4% done
  92.4% done
  92.5% done
  92.5% done
  92.6% done
  92.6% done
  92.6% done
  92.7% done
  92.7% done
  92.8% done
  92.8% done
  92.8% done
  92.9% done
  92.9% done
  93.0% done
  93.0% done
  93.0% done
  93.1% done
  93.1% done
  93.2% done
  93.2% done
  93.2% done
  93.3% done
  93.3% done
  93.4% done
  93.4% done
  93.4% done
  93.5% done
  93.5% done
  93.6% done
  93.6% done
  93.6% done
  93.7% done
  93.7% done
  93.8% done
  93.8% done
  93.8% done
  93.9% done
  93.9% done
  94.0% done
  94.0% done
  94.0% done
  94.1% done
  94.1% done
  94.2% done
  94.2% done
  94.2% done
  94.3% done
  94.3% done
  94.4% done
  94.4% done
  94.4% done
  94.5% done
  94.5% done
  94.6% done
  94.6% done
  94.6% done
  94.7% done
  94.7% done
  94.8% done
  94.8% done
  94.8% done
  94.9% done
  94.9% done
  95.0% done
  95.0% done
  95.0% done
  95.1% done
  95.1% done
  95.2% done
  95.2% done
  95.2% done
  95.3% done
  95.3% done
  95.4% done
  95.4% done
  95.5% done
  95.5% done
  95.5% done
  95.6% done
  95.6% done
  95.7% done
  95.7% done
  95.7% done
  95.8% done
  95.8% done
  95.9% done
  95.9% done
  95.9% done
  96.0% done
  96.0% done
  96.1% done
  96.1% done
  96.1% done
  96.2% done
  96.2% done
  96.3% done
  96.3% done
  96.3% done
  96.4% done
  96.4% done
  96.5% done
  96.5% done
  96.5% done
  96.6% done
  96.6% done
  96.7% done
  96.7% done
  96.7% done
  96.8% done
  96.8% done
  96.9% done
  96.9% done
  96.9% done
  97.0% done
  97.0% done
  97.1% done
  97.1% done
  97.1% done
  97.2% done
  97.2% done
  97.3% done
  97.3% done
  97.3% done
  97.4% done
  97.4% done
  97.5% done
  97.5% done
  97.5% done
  97.6% done
  97.6% done
  97.7% done
  97.7% done
  97.7% done
  97.8% done
  97.8% done
  97.9% done
  97.9% done
  97.9% done
  98.0% done
  98.0% done
  98.1% done
  98.1% done
  98.1% done
  98.2% done
  98.2% done
  98.3% done
  98.3% done
  98.3% done
  98.4% done
  98.4% done
  98.5% done
  98.5% done
  98.6% done
  98.6% done
  98.6% done
  98.7% done
  98.7% done
  98.8% done
  98.8% done
  98.8% done
  98.9% done
  98.9% done
  99.0% done
  99.0% done
  99.0% done
  99.1% done
  99.1% done
  99.2% done
  99.2% done
  99.2% done
  99.3% done
  99.3% done
  99.4% done
  99.4% done
  99.4% done
  99.5% done
  99.5% done
  99.6% done
  99.6% done
  99.6% done
  99.7% done
  99.7% done
  99.8% done
  99.8% done
  99.8% done
  99.9% done
  99.9% done
  100.0% done
  100.0% done
  Warning: shallow water so long wave variance is reduced using par%nmax
  Calculating flux at boundary
  Flux1 of1
   Writing long wave mass flux toq_reuse.bcf ...
  file done
  --------------------------------
  Spectral wave boundary conditions complete
  --------------------------------
  Boundary conditions complete, starting computation
  Simulation  0.0 percent complete. Average dt  0.167 seconds
  Time remaining*** hours and 49 minutes
  Simulation  0.0 percent complete. Average dt  0.333 seconds
  Time remaining*** hours and 54 minutes
  Simulation  0.0 percent complete. Average dt  0.333 seconds
  Time remaining*** hours and 26 minutes
  Simulation  0.0 percent complete. Average dt  0.333 seconds
  Time remaining*** hours and 34 minutes
  Simulation  0.0 percent complete. Average dt  0.333 seconds
  Time remaining*** hours and 13 minutes
  Simulation  0.0 percent complete. Average dt  0.333 seconds
  Time remaining*** hours and 53 minutes
  Simulation  0.0 percent complete. Average dt  0.333 seconds
  Time remaining*** hours and 48 minutes
  Simulation  0.1 percent complete. Average dt  0.333 seconds
  Time remaining953 hours and 34 minutes
  Simulation  0.1 percent complete. Average dt  0.333 seconds
  Time remaining830 hours and  2 minutes
  Simulation  0.1 percent complete. Average dt  0.333 seconds
  Time remaining741 hours and 17 minutes
  Simulation  0.1 percent complete. Average dt  0.333 seconds
  Time remaining673 hours and 59 minutes
  Simulation  0.1 percent complete. Average dt  0.333 seconds
  Time remaining622 hours and 39 minutes
  Simulation  0.1 percent complete. Average dt  0.333 seconds
  Time remaining574 hours and 53 minutes
  Simulation  0.1 percent complete. Average dt  0.333 seconds
  Time remaining531 hours and 47 minutes
  Simulation  0.1 percent complete. Average dt  0.333 seconds
  Time remaining497 hours and  4 minutes
  Simulation  0.1 percent complete. Average dt  0.333 seconds
  Time remaining470 hours and 46 minutes
  Simulation  0.1 percent complete. Average dt  0.333 seconds
  Time remaining446 hours and  3 minutes
  Simulation  0.1 percent complete. Average dt  0.333 seconds
  Time remaining424 hours and 54 minutes
  Simulation  0.1 percent complete. Average dt  0.333 seconds
  Time remaining404 hours and 34 minutes
  Simulation  0.1 percent complete. Average dt  0.333 seconds
  Time remaining385 hours and 55 minutes
  Simulation  0.2 percent complete. Average dt  0.333 seconds
  Time remaining369 hours and  1 minutes
  Simulation  0.2 percent complete. Average dt  0.333 seconds
  Time remaining352 hours and 36 minutes
  Simulation  0.2 percent complete. Average dt  0.333 seconds
  Time remaining337 hours and 35 minutes
  Simulation  0.2 percent complete. Average dt  0.333 seconds
  Time remaining324 hours and 41 minutes
  Simulation  0.2 percent complete. Average dt  0.333 seconds
  Time remaining312 hours and 16 minutes
  Simulation  0.2 percent complete. Average dt  0.333 seconds
  Time remaining301 hours and 43 minutes
  Simulation  0.2 percent complete. Average dt  0.333 seconds
  Time remaining291 hours and 44 minutes
  Simulation  0.2 percent complete. Average dt  0.333 seconds
  Time remaining282 hours and 28 minutes
  Simulation  0.2 percent complete. Average dt  0.333 seconds
  Time remaining274 hours and  1 minutes
  Simulation  0.2 percent complete. Average dt  0.333 seconds
  Time remaining266 hours and 26 minutes
  Simulation  0.2 percent complete. Average dt  0.186 seconds
  Time remaining260 hours and 23 minutes
  Simulation  0.2 percent complete. Average dt  0.167 seconds
  Time remaining254 hours and 33 minutes
  Simulation  0.2 percent complete. Average dt  0.167 seconds
  Time remaining248 hours and  2 minutes
  Simulation  0.2 percent complete. Average dt  0.262 seconds
  Time remaining241 hours and 30 minutes
  Simulation  0.2 percent complete. Average dt  0.167 seconds
  Time remaining236 hours and 28 minutes
  Simulation  0.2 percent complete. Average dt  0.167 seconds
  Time remaining231 hours and 27 minutes
  Simulation  0.3 percent complete. Average dt  0.167 seconds
  Time remaining226 hours and 49 minutes
  Simulation  0.3 percent complete. Average dt  0.260 seconds
  Time remaining220 hours and 37 minutes
  Simulation  0.3 percent complete. Average dt  0.167 seconds
  Time remaining216 hours and 13 minutes
  Simulation  0.3 percent complete. Average dt  0.167 seconds
  Time remaining212 hours and 19 minutes
  Simulation  0.3 percent complete. Average dt  0.167 seconds
  Time remaining208 hours and 18 minutes
  Simulation  0.3 percent complete. Average dt  0.167 seconds
  Time remaining204 hours and 25 minutes
  Simulation  0.3 percent complete. Average dt  0.298 seconds
  Time remaining199 hours and 41 minutes
  Simulation  0.3 percent complete. Average dt  0.244 seconds
  Time remaining195 hours and 43 minutes
  Simulation  0.3 percent complete. Average dt  0.167 seconds
  Time remaining192 hours and 40 minutes
  Simulation  0.3 percent complete. Average dt  0.127 seconds
  Time remaining189 hours and 32 minutes
  Simulation  0.3 percent complete. Average dt  0.113 seconds
  Time remaining187 hours and 13 minutes
  Simulation  0.3 percent complete. Average dt  0.167 seconds
  Time remaining185 hours and 16 minutes
  Simulation  0.3 percent complete. Average dt  0.167 seconds
  Time remaining181 hours and 59 minutes
  Simulation  0.3 percent complete. Average dt  0.167 seconds
  Time remaining179 hours and 15 minutes
  Simulation  0.3 percent complete. Average dt  0.167 seconds
  Time remaining176 hours and 51 minutes
  Simulation  0.3 percent complete. Average dt  0.167 seconds
  Time remaining174 hours and 38 minutes
  Simulation  0.3 percent complete. Average dt  0.167 seconds
  Time remaining172 hours and  8 minutes
  Simulation  0.4 percent complete. Average dt  0.167 seconds
  Time remaining170 hours and  1 minutes
  Simulation  0.4 percent complete. Average dt  0.167 seconds
  Time remaining167 hours and 50 minutes
  Simulation  0.4 percent complete. Average dt  0.167 seconds
  Time remaining165 hours and 41 minutes
  Simulation  0.4 percent complete. Average dt  0.167 seconds
  Time remaining163 hours and 46 minutes
  Simulation  0.4 percent complete. Average dt  0.167 seconds
  Time remaining161 hours and 51 minutes
  Simulation  0.4 percent complete. Average dt  0.167 seconds
  Time remaining159 hours and 48 minutes
  Simulation  0.4 percent complete. Average dt  0.176 seconds
  Time remaining157 hours and 37 minutes
  Simulation  0.4 percent complete. Average dt  0.176 seconds
  Time remaining155 hours and 51 minutes
  Simulation  0.4 percent complete. Average dt  0.333 seconds
  Time remaining153 hours and 51 minutes
  Simulation  0.4 percent complete. Average dt  0.333 seconds
  Time remaining151 hours and  3 minutes
  Simulation  0.4 percent complete. Average dt  0.333 seconds
  Time remaining149 hours and 19 minutes
  Simulation  0.4 percent complete. Average dt  0.333 seconds
  Time remaining147 hours and 12 minutes
  Simulation  0.4 percent complete. Average dt  0.333 seconds
  Time remaining144 hours and 54 minutes
  Simulation  0.4 percent complete. Average dt  0.333 seconds
  Time remaining143 hours and 22 minutes
  Simulation  0.4 percent complete. Average dt  0.264 seconds
  Time remaining141 hours and 47 minutes
  Simulation  0.4 percent complete. Average dt  0.167 seconds
  Time remaining140 hours and  3 minutes
  Simulation  0.4 percent complete. Average dt  0.167 seconds
  Time remaining139 hours and  4 minutes
  Simulation  0.4 percent complete. Average dt  0.167 seconds
  Time remaining137 hours and 14 minutes
  Simulation  0.5 percent complete. Average dt  0.167 seconds
  Time remaining136 hours and 11 minutes
  Simulation  0.5 percent complete. Average dt  0.167 seconds
  Time remaining134 hours and 53 minutes
  Simulation  0.5 percent complete. Average dt  0.292 seconds
  Time remaining133 hours and 12 minutes
  Simulation  0.5 percent complete. Average dt  0.236 seconds
  Time remaining132 hours and  3 minutes
  Simulation  0.5 percent complete. Average dt  0.250 seconds
  Time remaining131 hours and  3 minutes
  Simulation  0.5 percent complete. Average dt  0.333 seconds
  Time remaining129 hours and 18 minutes
  Simulation  0.5 percent complete. Average dt  0.333 seconds
  Time remaining128 hours and 13 minutes
  Simulation  0.5 percent complete. Average dt  0.333 seconds
  Time remaining126 hours and 38 minutes
  Simulation  0.5 percent complete. Average dt  0.178 seconds
  Time remaining125 hours and 15 minutes
  Simulation  0.5 percent complete. Average dt  0.167 seconds
  Time remaining124 hours and  7 minutes
  Simulation  0.5 percent complete. Average dt  0.135 seconds
  Time remaining123 hours and 26 minutes
  Simulation  0.5 percent complete. Average dt  0.164 seconds
  Time remaining122 hours and 17 minutes
  Simulation  0.5 percent complete. Average dt  0.167 seconds
  Time remaining121 hours and 20 minutes
  Simulation  0.5 percent complete. Average dt  0.167 seconds
  Time remaining120 hours and 41 minutes
  Simulation  0.5 percent complete. Average dt  0.167 seconds
  Time remaining119 hours and 25 minutes
  Simulation  0.5 percent complete. Average dt  0.167 seconds
  Time remaining118 hours and 26 minutes
  Simulation  0.5 percent complete. Average dt  0.333 seconds
  Time remaining117 hours and 23 minutes
  Simulation  0.5 percent complete. Average dt  0.333 seconds
  Time remaining116 hours and 15 minutes
  Simulation  0.6 percent complete. Average dt  0.333 seconds
  Time remaining115 hours and  6 minutes
  Simulation  0.6 percent complete. Average dt  0.303 seconds
  Time remaining113 hours and 46 minutes
  Simulation  0.6 percent complete. Average dt  0.167 seconds
  Time remaining113 hours and  4 minutes
  Simulation  0.6 percent complete. Average dt  0.155 seconds
  Time remaining112 hours and 50 minutes
  Simulation  0.6 percent complete. Average dt  0.153 seconds
  Time remaining111 hours and 34 minutes
  Simulation  0.6 percent complete. Average dt  0.167 seconds
  Time remaining110 hours and 29 minutes
  Simulation  0.6 percent complete. Average dt  0.167 seconds
  Time remaining110 hours and  2 minutes
  Simulation  0.6 percent complete. Average dt  0.167 seconds
  Time remaining108 hours and 51 minutes
  Simulation  0.6 percent complete. Average dt  0.167 seconds
  Time remaining108 hours and 10 minutes
  Simulation  0.6 percent complete. Average dt  0.176 seconds
  Time remaining107 hours and 34 minutes
  Simulation  0.6 percent complete. Average dt  0.333 seconds
  Time remaining106 hours and 30 minutes
  Simulation  0.6 percent complete. Average dt  0.244 seconds
  Time remaining105 hours and 35 minutes
  Simulation  0.6 percent complete. Average dt  0.333 seconds
  Time remaining105 hours and  1 minutes
  Simulation  0.6 percent complete. Average dt  0.306 seconds
  Time remaining103 hours and 37 minutes
  Simulation  0.6 percent complete. Average dt  0.333 seconds
  Time remaining103 hours and 11 minutes
  Simulation  0.6 percent complete. Average dt  0.218 seconds
  Time remaining102 hours and 40 minutes
  Simulation  0.6 percent complete. Average dt  0.151 seconds
  Time remaining101 hours and 40 minutes
  Simulation  0.6 percent complete. Average dt  0.131 seconds
  Time remaining101 hours and 23 minutes
  Simulation  0.7 percent complete. Average dt  0.167 seconds
  Time remaining100 hours and 39 minutes
  Simulation  0.7 percent complete. Average dt  0.167 seconds
  Time remaining 99 hours and 51 minutes
  Simulation  0.7 percent complete. Average dt  0.167 seconds
  Time remaining 99 hours and 16 minutes
  Simulation  0.7 percent complete. Average dt  0.167 seconds
  Time remaining 98 hours and 56 minutes
  Simulation  0.7 percent complete. Average dt  0.196 seconds
  Time remaining 98 hours and 10 minutes
  Simulation  0.7 percent complete. Average dt  0.333 seconds
  Time remaining 97 hours and 40 minutes
  Simulation  0.7 percent complete. Average dt  0.333 seconds
  Time remaining 96 hours and 52 minutes
  Simulation  0.7 percent complete. Average dt  0.226 seconds
  Time remaining 95 hours and 44 minutes
  Simulation  0.7 percent complete. Average dt  0.167 seconds
  Time remaining 95 hours and 17 minutes
  Simulation  0.7 percent complete. Average dt  0.154 seconds
  Time remaining 94 hours and 56 minutes
  Simulation  0.7 percent complete. Average dt  0.122 seconds
  Time remaining 94 hours and 28 minutes
  Simulation  0.7 percent complete. Average dt  0.167 seconds
  Time remaining 94 hours and  7 minutes
  Simulation  0.7 percent complete. Average dt  0.167 seconds
  Time remaining 93 hours and 15 minutes
  Simulation  0.7 percent complete. Average dt  0.167 seconds
  Time remaining 92 hours and 44 minutes
  Simulation  0.7 percent complete. Average dt  0.167 seconds
  Time remaining 92 hours and 33 minutes
  Simulation  0.7 percent complete. Average dt  0.167 seconds
  Time remaining 92 hours and  3 minutes
  Simulation  0.7 percent complete. Average dt  0.226 seconds
  Time remaining 91 hours and 32 minutes
  Simulation  0.7 percent complete. Average dt  0.333 seconds
  Time remaining 90 hours and 55 minutes
  Simulation  0.8 percent complete. Average dt  0.333 seconds
  Time remaining 90 hours and 26 minutes
  Simulation  0.8 percent complete. Average dt  0.318 seconds
  Time remaining 89 hours and 35 minutes
  Simulation  0.8 percent complete. Average dt  0.167 seconds
  Time remaining 88 hours and 60 minutes
  Simulation  0.8 percent complete. Average dt  0.167 seconds
  Time remaining 88 hours and 30 minutes
  Simulation  0.8 percent complete. Average dt  0.167 seconds
  Time remaining 88 hours and 23 minutes
  Simulation  0.8 percent complete. Average dt  0.151 seconds
  Time remaining 87 hours and 45 minutes
  Simulation  0.8 percent complete. Average dt  0.167 seconds
  Time remaining 87 hours and 20 minutes
  Simulation  0.8 percent complete. Average dt  0.167 seconds
  Time remaining 86 hours and 59 minutes
  Simulation  0.8 percent complete. Average dt  0.167 seconds
  Time remaining 86 hours and 24 minutes
  Simulation  0.8 percent complete. Average dt  0.167 seconds
  Time remaining 86 hours and 12 minutes
  Simulation  0.8 percent complete. Average dt  0.167 seconds
  Time remaining 85 hours and 35 minutes
  Simulation  0.8 percent complete. Average dt  0.295 seconds
  Time remaining 85 hours and 29 minutes
  Simulation  0.8 percent complete. Average dt  0.185 seconds
  Time remaining 84 hours and 23 minutes
  Simulation  0.8 percent complete. Average dt  0.142 seconds
  Time remaining 84 hours and 14 minutes
  Simulation  0.8 percent complete. Average dt  0.148 seconds
  Time remaining 83 hours and 44 minutes
  Simulation  0.8 percent complete. Average dt  0.167 seconds
  Time remaining 83 hours and 25 minutes
  Simulation  0.8 percent complete. Average dt  0.167 seconds
  Time remaining 82 hours and 56 minutes
  Simulation  0.8 percent complete. Average dt  0.167 seconds
  Time remaining 82 hours and 32 minutes
  Simulation  0.8 percent complete. Average dt  0.167 seconds
  Time remaining 82 hours and 15 minutes
  Simulation  0.8 percent complete. Average dt  0.167 seconds
  Time remaining 81 hours and 45 minutes
  Simulation  0.9 percent complete. Average dt  0.167 seconds
  Time remaining 81 hours and 31 minutes
  Simulation  0.9 percent complete. Average dt  0.167 seconds
  Time remaining 81 hours and 30 minutes
  Simulation  0.9 percent complete. Average dt  0.167 seconds
  Time remaining 81 hours and  5 minutes
  Simulation  0.9 percent complete. Average dt  0.167 seconds
  Time remaining 80 hours and 32 minutes
  Simulation  0.9 percent complete. Average dt  0.167 seconds
  Time remaining 80 hours and  2 minutes
  Simulation  0.9 percent complete. Average dt  0.240 seconds
  Time remaining 79 hours and 56 minutes
  Simulation  0.9 percent complete. Average dt  0.333 seconds
  Time remaining 79 hours and  7 minutes
  Simulation  0.9 percent complete. Average dt  0.333 seconds
  Time remaining 79 hours and  6 minutes
  Simulation  0.9 percent complete. Average dt  0.278 seconds
  Time remaining 78 hours and 11 minutes
  Simulation  0.9 percent complete. Average dt  0.176 seconds
  Time remaining 77 hours and 57 minutes
  Simulation  0.9 percent complete. Average dt  0.333 seconds
  Time remaining 77 hours and 25 minutes
  Simulation  0.9 percent complete. Average dt  0.333 seconds
  Time remaining 77 hours and  7 minutes
  Simulation  0.9 percent complete. Average dt  0.319 seconds
  Time remaining 77 hours and  2 minutes
  Simulation  0.9 percent complete. Average dt  0.167 seconds
  Time remaining 76 hours and 44 minutes
  Simulation  0.9 percent complete. Average dt  0.167 seconds
  Time remaining 76 hours and 23 minutes
  Simulation  0.9 percent complete. Average dt  0.167 seconds
  Time remaining 75 hours and 46 minutes
  Simulation  0.9 percent complete. Average dt  0.167 seconds
  Time remaining 75 hours and 20 minutes
  Simulation  1.0 percent complete. Average dt  0.167 seconds
  Time remaining 75 hours and  2 minutes
  Simulation  1.0 percent complete. Average dt  0.167 seconds
  Time remaining 75 hours and  7 minutes
  Simulation  1.0 percent complete. Average dt  0.167 seconds
  Time remaining 74 hours and 39 minutes
  Simulation  1.0 percent complete. Average dt  0.278 seconds
  Time remaining 74 hours and 39 minutes
  Simulation  1.0 percent complete. Average dt  0.200 seconds
  Time remaining 73 hours and 43 minutes
  Simulation  1.0 percent complete. Average dt  0.167 seconds
  Time remaining 73 hours and 30 minutes
  Simulation  1.0 percent complete. Average dt  0.167 seconds
  Time remaining 73 hours and 14 minutes
  Simulation  1.0 percent complete. Average dt  0.184 seconds
  Time remaining 72 hours and 53 minutes
  Simulation  1.0 percent complete. Average dt  0.167 seconds
  Time remaining 73 hours and  5 minutes
  Simulation  1.0 percent complete. Average dt  0.167 seconds
  Time remaining 72 hours and 49 minutes
  Simulation  1.0 percent complete. Average dt  0.167 seconds
  Time remaining 72 hours and 10 minutes
  Simulation  1.0 percent complete. Average dt  0.167 seconds
  Time remaining 71 hours and 56 minutes
  Simulation  1.0 percent complete. Average dt  0.167 seconds
  Time remaining 71 hours and 46 minutes
  Simulation  1.0 percent complete. Average dt  0.167 seconds
  Time remaining 71 hours and 21 minutes
  Simulation  1.0 percent complete. Average dt  0.167 seconds
  Time remaining 71 hours and 23 minutes
  Simulation  1.0 percent complete. Average dt  0.167 seconds
  Time remaining 71 hours and  9 minutes
  Simulation  1.0 percent complete. Average dt  0.176 seconds
  Time remaining 70 hours and 34 minutes
  Simulation  1.0 percent complete. Average dt  0.167 seconds
  Time remaining 70 hours and 14 minutes
  Simulation  1.0 percent complete. Average dt  0.167 seconds
  Time remaining 70 hours and 20 minutes
  Simulation  1.1 percent complete. Average dt  0.167 seconds
  Time remaining 70 hours and  9 minutes
  Simulation  1.1 percent complete. Average dt  0.167 seconds
  Time remaining 69 hours and 49 minutes
  Simulation  1.1 percent complete. Average dt  0.167 seconds
  Time remaining 69 hours and 34 minutes
  Simulation  1.1 percent complete. Average dt  0.167 seconds
  Time remaining 69 hours and 22 minutes
  Simulation  1.1 percent complete. Average dt  0.319 seconds
  Time remaining 68 hours and 42 minutes
  Simulation  1.1 percent complete. Average dt  0.244 seconds
  Time remaining 68 hours and 52 minutes
  Simulation  1.1 percent complete. Average dt  0.167 seconds
  Time remaining 68 hours and 20 minutes
  Simulation  1.1 percent complete. Average dt  0.136 seconds
  Time remaining 68 hours and 17 minutes
  Simulation  1.1 percent complete. Average dt  0.111 seconds
  Time remaining 67 hours and 59 minutes
  Simulation  1.1 percent complete. Average dt  0.161 seconds
  Time remaining 68 hours and  2 minutes
  Simulation  1.1 percent complete. Average dt  0.167 seconds
  Time remaining 67 hours and 47 minutes
  Simulation  1.1 percent complete. Average dt  0.167 seconds
  Time remaining 67 hours and 17 minutes
  Simulation  1.1 percent complete. Average dt  0.167 seconds
  Time remaining 66 hours and 52 minutes
  Simulation  1.1 percent complete. Average dt  0.167 seconds
  Time remaining 67 hours and  4 minutes
  Simulation  1.1 percent complete. Average dt  0.167 seconds
  Time remaining 66 hours and 42 minutes
  Simulation  1.1 percent complete. Average dt  0.256 seconds
  Time remaining 66 hours and 12 minutes
  Simulation  1.1 percent complete. Average dt  0.167 seconds
  Time remaining 66 hours and 48 minutes
  Simulation  1.1 percent complete. Average dt  0.167 seconds
  Time remaining 65 hours and 60 minutes
  Simulation  1.1 percent complete. Average dt  0.167 seconds
  Time remaining 66 hours and 16 minutes
  Simulation  1.1 percent complete. Average dt  0.167 seconds
  Time remaining 65 hours and 44 minutes
  Simulation  1.2 percent complete. Average dt  0.167 seconds
  Time remaining 65 hours and 21 minutes
  Simulation  1.2 percent complete. Average dt  0.167 seconds
  Time remaining 65 hours and  7 minutes
  Simulation  1.2 percent complete. Average dt  0.167 seconds
  Time remaining 64 hours and 57 minutes
  Simulation  1.2 percent complete. Average dt  0.167 seconds
  Time remaining 65 hours and 10 minutes
  Simulation  1.2 percent complete. Average dt  0.167 seconds
  Time remaining 64 hours and 44 minutes
  Simulation  1.2 percent complete. Average dt  0.167 seconds
  Time remaining 64 hours and 24 minutes
  Simulation  1.2 percent complete. Average dt  0.167 seconds
  Time remaining 64 hours and 32 minutes
  Simulation  1.2 percent complete. Average dt  0.167 seconds
  Time remaining 63 hours and 57 minutes
  Simulation  1.2 percent complete. Average dt  0.233 seconds
  Time remaining 64 hours and  6 minutes
  Simulation  1.2 percent complete. Average dt  0.333 seconds
  Time remaining 63 hours and 40 minutes
  Simulation  1.2 percent complete. Average dt  0.333 seconds
  Time remaining 63 hours and 25 minutes
  Simulation  1.2 percent complete. Average dt  0.333 seconds
  Time remaining 63 hours and 23 minutes
  Simulation  1.2 percent complete. Average dt  0.333 seconds
  Time remaining 63 hours and 16 minutes
  Simulation  1.2 percent complete. Average dt  0.231 seconds
  Time remaining 62 hours and 36 minutes
  Simulation  1.2 percent complete. Average dt  0.167 seconds
  Time remaining 62 hours and 33 minutes
  Simulation  1.2 percent complete. Average dt  0.167 seconds
  Time remaining 62 hours and 18 minutes
  Simulation  1.2 percent complete. Average dt  0.167 seconds
  Time remaining 62 hours and 33 minutes
  Simulation  1.2 percent complete. Average dt  0.176 seconds
  Time remaining 61 hours and 54 minutes
  Simulation  1.3 percent complete. Average dt  0.167 seconds
  Time remaining 62 hours and  1 minutes
  Simulation  1.3 percent complete. Average dt  0.185 seconds
  Time remaining 61 hours and 32 minutes
  Simulation  1.3 percent complete. Average dt  0.167 seconds
  Time remaining 61 hours and 18 minutes
  Simulation  1.3 percent complete. Average dt  0.167 seconds
  Time remaining 61 hours and  7 minutes
  Simulation  1.3 percent complete. Average dt  0.167 seconds
  Time remaining 60 hours and 58 minutes
  Simulation  1.3 percent complete. Average dt  0.222 seconds
  Time remaining 61 hours and 10 minutes
  Simulation  1.3 percent complete. Average dt  0.333 seconds
  Time remaining 60 hours and 50 minutes
  Simulation  1.3 percent complete. Average dt  0.244 seconds
  Time remaining 60 hours and 32 minutes
  Simulation  1.3 percent complete. Average dt  0.202 seconds
  Time remaining 60 hours and 15 minutes
  Simulation  1.3 percent complete. Average dt  0.176 seconds
  Time remaining 60 hours and 11 minutes
  Simulation  1.3 percent complete. Average dt  0.146 seconds
  Time remaining 59 hours and 56 minutes
  Simulation  1.3 percent complete. Average dt  0.124 seconds
  Time remaining 59 hours and 52 minutes
  Simulation  1.3 percent complete. Average dt  0.167 seconds
  Time remaining 59 hours and 53 minutes
  Simulation  1.3 percent complete. Average dt  0.167 seconds
  Time remaining 59 hours and 38 minutes
  Simulation  1.3 percent complete. Average dt  0.167 seconds
  Time remaining 59 hours and 26 minutes
  Simulation  1.3 percent complete. Average dt  0.167 seconds
  Time remaining 59 hours and 26 minutes
  Simulation  1.3 percent complete. Average dt  0.167 seconds
  Time remaining 59 hours and  4 minutes
  Simulation  1.3 percent complete. Average dt  0.208 seconds
  Time remaining 58 hours and 49 minutes
  Simulation  1.3 percent complete. Average dt  0.333 seconds
  Time remaining 58 hours and 52 minutes
  Simulation  1.4 percent complete. Average dt  0.333 seconds
  Time remaining 58 hours and 29 minutes
  Simulation  1.4 percent complete. Average dt  0.189 seconds
  Time remaining 58 hours and 29 minutes
  Simulation  1.4 percent complete. Average dt  0.167 seconds
  Time remaining 58 hours and 35 minutes
  Simulation  1.4 percent complete. Average dt  0.114 seconds
  Time remaining 58 hours and 38 minutes
  Simulation  1.4 percent complete. Average dt  0.118 seconds
  Time remaining 58 hours and  1 minutes
  Simulation  1.4 percent complete. Average dt  0.167 seconds
  Time remaining 58 hours and  8 minutes
  Simulation  1.4 percent complete. Average dt  0.167 seconds
  Time remaining 58 hours and  9 minutes
  Simulation  1.4 percent complete. Average dt  0.167 seconds
  Time remaining 57 hours and 31 minutes
  Simulation  1.4 percent complete. Average dt  0.167 seconds
  Time remaining 57 hours and 34 minutes
  Simulation  1.4 percent complete. Average dt  0.167 seconds
  Time remaining 57 hours and 40 minutes
  Simulation  1.4 percent complete. Average dt  0.167 seconds
  Time remaining 57 hours and 33 minutes
  Simulation  1.4 percent complete. Average dt  0.167 seconds
  Time remaining 57 hours and 28 minutes
  Simulation  1.4 percent complete. Average dt  0.167 seconds
  Time remaining 57 hours and  8 minutes
  Simulation  1.4 percent complete. Average dt  0.167 seconds
  Time remaining 56 hours and 50 minutes
  Simulation  1.4 percent complete. Average dt  0.167 seconds
  Time remaining 57 hours and  7 minutes
  Simulation  1.4 percent complete. Average dt  0.167 seconds
  Time remaining 56 hours and 35 minutes
  Simulation  1.4 percent complete. Average dt  0.177 seconds
  Time remaining 56 hours and 19 minutes
  Simulation  1.4 percent complete. Average dt  0.333 seconds
  Time remaining 56 hours and  8 minutes
  Simulation  1.4 percent complete. Average dt  0.264 seconds
  Time remaining 56 hours and  1 minutes
  Simulation  1.5 percent complete. Average dt  0.167 seconds
  Time remaining 56 hours and  6 minutes
  Simulation  1.5 percent complete. Average dt  0.167 seconds
  Time remaining 55 hours and 53 minutes
  Simulation  1.5 percent complete. Average dt  0.167 seconds
  Time remaining 55 hours and 49 minutes
  Simulation  1.5 percent complete. Average dt  0.167 seconds
  Time remaining 55 hours and 32 minutes
  Simulation  1.5 percent complete. Average dt  0.167 seconds
  Time remaining 55 hours and 21 minutes
  Simulation  1.5 percent complete. Average dt  0.167 seconds
  Time remaining 55 hours and 23 minutes
  Simulation  1.5 percent complete. Average dt  0.167 seconds
  Time remaining 55 hours and 18 minutes
  Simulation  1.5 percent complete. Average dt  0.167 seconds
  Time remaining 55 hours and 21 minutes
  Simulation  1.5 percent complete. Average dt  0.226 seconds
  Time remaining 54 hours and 52 minutes
  Simulation  1.5 percent complete. Average dt  0.244 seconds
  Time remaining 54 hours and 43 minutes
  Simulation  1.5 percent complete. Average dt  0.167 seconds
  Time remaining 54 hours and 44 minutes
  Simulation  1.5 percent complete. Average dt  0.167 seconds
  Time remaining 54 hours and 49 minutes
  Simulation  1.5 percent complete. Average dt  0.167 seconds
  Time remaining 54 hours and 26 minutes
  Simulation  1.5 percent complete. Average dt  0.167 seconds
  Time remaining 54 hours and 13 minutes
  Simulation  1.5 percent complete. Average dt  0.167 seconds
  Time remaining 54 hours and  9 minutes
  Simulation  1.5 percent complete. Average dt  0.167 seconds
  Time remaining 54 hours and  3 minutes
  Simulation  1.5 percent complete. Average dt  0.295 seconds
  Time remaining 54 hours and 29 minutes
  Simulation  1.5 percent complete. Average dt  0.333 seconds
  Time remaining 53 hours and 42 minutes
  Simulation  1.5 percent complete. Average dt  0.333 seconds
  Time remaining 53 hours and 45 minutes
  Simulation  1.6 percent complete. Average dt  0.333 seconds
  Time remaining 53 hours and 43 minutes
  Simulation  1.6 percent complete. Average dt  0.303 seconds
  Time remaining 53 hours and 24 minutes
  Simulation  1.6 percent complete. Average dt  0.167 seconds
  Time remaining 53 hours and 32 minutes
  Simulation  1.6 percent complete. Average dt  0.167 seconds
  Time remaining 53 hours and  7 minutes
  Simulation  1.6 percent complete. Average dt  0.167 seconds
  Time remaining 53 hours and  2 minutes
  Simulation  1.6 percent complete. Average dt  0.167 seconds
  Time remaining 53 hours and  4 minutes
  Simulation  1.6 percent complete. Average dt  0.167 seconds
  Time remaining 52 hours and 45 minutes
  Simulation  1.6 percent complete. Average dt  0.167 seconds
  Time remaining 53 hours and 12 minutes
  Simulation  1.6 percent complete. Average dt  0.175 seconds
  Time remaining 52 hours and 45 minutes
  Simulation  1.6 percent complete. Average dt  0.226 seconds
  Time remaining 52 hours and 30 minutes
  Simulation  1.6 percent complete. Average dt  0.167 seconds
  Time remaining 52 hours and 20 minutes
  Simulation  1.6 percent complete. Average dt  0.167 seconds
  Time remaining 52 hours and 10 minutes
  Simulation  1.6 percent complete. Average dt  0.167 seconds
  Time remaining 52 hours and 11 minutes
  Simulation  1.6 percent complete. Average dt  0.167 seconds
  Time remaining 52 hours and 21 minutes
  Simulation  1.6 percent complete. Average dt  0.167 seconds
  Time remaining 52 hours and 26 minutes
  Simulation  1.6 percent complete. Average dt  0.292 seconds
  Time remaining 52 hours and 11 minutes
  Simulation  1.6 percent complete. Average dt  0.333 seconds
  Time remaining 52 hours and  4 minutes
  Simulation  1.6 percent complete. Average dt  0.185 seconds
  Time remaining 51 hours and 37 minutes
  Simulation  1.7 percent complete. Average dt  0.167 seconds
  Time remaining 51 hours and 44 minutes
  Simulation  1.7 percent complete. Average dt  0.167 seconds
  Time remaining 51 hours and 35 minutes
  Simulation  1.7 percent complete. Average dt  0.167 seconds
  Time remaining 51 hours and 12 minutes
  Simulation  1.7 percent complete. Average dt  0.167 seconds
  Time remaining 51 hours and 29 minutes
  Simulation  1.7 percent complete. Average dt  0.164 seconds
  Time remaining 51 hours and 24 minutes
  Simulation  1.7 percent complete. Average dt  0.160 seconds
  Time remaining 50 hours and 56 minutes
  Simulation  1.7 percent complete. Average dt  0.167 seconds
  Time remaining 51 hours and  2 minutes
  Simulation  1.7 percent complete. Average dt  0.167 seconds
  Time remaining 50 hours and 51 minutes
  Simulation  1.7 percent complete. Average dt  0.167 seconds
  Time remaining 50 hours and 38 minutes
  Simulation  1.7 percent complete. Average dt  0.167 seconds
  Time remaining 50 hours and 52 minutes
  Simulation  1.7 percent complete. Average dt  0.167 seconds
  Time remaining 50 hours and 27 minutes
  Simulation  1.7 percent complete. Average dt  0.250 seconds
  Time remaining 50 hours and 53 minutes
  Simulation  1.7 percent complete. Average dt  0.333 seconds
  Time remaining 50 hours and 16 minutes
  Simulation  1.7 percent complete. Average dt  0.333 seconds
  Time remaining 50 hours and 10 minutes
  Simulation  1.7 percent complete. Average dt  0.333 seconds
  Time remaining 50 hours and 26 minutes
  Simulation  1.7 percent complete. Average dt  0.333 seconds
  Time remaining 49 hours and 57 minutes
  Simulation  1.7 percent complete. Average dt  0.189 seconds
  Time remaining 49 hours and 48 minutes
  Simulation  1.7 percent complete. Average dt  0.167 seconds
  Time remaining 49 hours and 55 minutes
  Simulation  1.8 percent complete. Average dt  0.167 seconds
  Time remaining 49 hours and 55 minutes
  Simulation  1.8 percent complete. Average dt  0.167 seconds
  Time remaining 49 hours and 30 minutes
  Simulation  1.8 percent complete. Average dt  0.167 seconds
  Time remaining 49 hours and 42 minutes
  Simulation  1.8 percent complete. Average dt  0.167 seconds
  Time remaining 49 hours and 36 minutes
  Simulation  1.8 percent complete. Average dt  0.167 seconds
  Time remaining 49 hours and 16 minutes
  Simulation  1.8 percent complete. Average dt  0.167 seconds
  Time remaining 49 hours and 29 minutes
  Simulation  1.8 percent complete. Average dt  0.167 seconds
  Time remaining 49 hours and  4 minutes
  Simulation  1.8 percent complete. Average dt  0.167 seconds
  Time remaining 49 hours and  1 minutes
  Simulation  1.8 percent complete. Average dt  0.167 seconds
  Time remaining 49 hours and  2 minutes
  Simulation  1.8 percent complete. Average dt  0.295 seconds
  Time remaining 48 hours and 49 minutes
  Simulation  1.8 percent complete. Average dt  0.333 seconds
  Time remaining 49 hours and 10 minutes
  Simulation  1.8 percent complete. Average dt  0.167 seconds
  Time remaining 48 hours and 43 minutes
  Simulation  1.8 percent complete. Average dt  0.167 seconds
  Time remaining 48 hours and 30 minutes
  Simulation  1.8 percent complete. Average dt  0.167 seconds
  Time remaining 48 hours and 27 minutes
  Simulation  1.8 percent complete. Average dt  0.167 seconds
  Time remaining 48 hours and 30 minutes
  Simulation  1.8 percent complete. Average dt  0.167 seconds
  Time remaining 48 hours and 27 minutes
  Simulation  1.8 percent complete. Average dt  0.167 seconds
  Time remaining 48 hours and 28 minutes
  Simulation  1.8 percent complete. Average dt  0.167 seconds
  Time remaining 48 hours and 16 minutes
  Simulation  1.8 percent complete. Average dt  0.186 seconds
  Time remaining 48 hours and 16 minutes
  Simulation  1.9 percent complete. Average dt  0.167 seconds
  Time remaining 48 hours and 19 minutes
  Simulation  1.9 percent complete. Average dt  0.167 seconds
  Time remaining 47 hours and 53 minutes
  Simulation  1.9 percent complete. Average dt  0.167 seconds
  Time remaining 47 hours and 60 minutes
  Simulation  1.9 percent complete. Average dt  0.167 seconds
  Time remaining 47 hours and 51 minutes
  Simulation  1.9 percent complete. Average dt  0.167 seconds
  Time remaining 48 hours and  6 minutes
  Simulation  1.9 percent complete. Average dt  0.167 seconds
  Time remaining 47 hours and 59 minutes
  Simulation  1.9 percent complete. Average dt  0.167 seconds
  Time remaining 47 hours and 32 minutes
  Simulation  1.9 percent complete. Average dt  0.167 seconds
  Time remaining 47 hours and 39 minutes
  Simulation  1.9 percent complete. Average dt  0.167 seconds
  Time remaining 47 hours and 31 minutes
  Simulation  1.9 percent complete. Average dt  0.167 seconds
  Time remaining 47 hours and 29 minutes
  Simulation  1.9 percent complete. Average dt  0.167 seconds
  Time remaining 47 hours and 15 minutes
  Simulation  1.9 percent complete. Average dt  0.167 seconds
  Time remaining 47 hours and 14 minutes
  Simulation  1.9 percent complete. Average dt  0.167 seconds
  Time remaining 47 hours and  6 minutes
  Simulation  1.9 percent complete. Average dt  0.167 seconds
  Time remaining 47 hours and 13 minutes
  Simulation  1.9 percent complete. Average dt  0.167 seconds
  Time remaining 47 hours and 14 minutes
  Simulation  1.9 percent complete. Average dt  0.167 seconds
  Time remaining 47 hours and  7 minutes
  Simulation  1.9 percent complete. Average dt  0.167 seconds
  Time remaining 46 hours and 39 minutes
  Simulation  1.9 percent complete. Average dt  0.167 seconds
  Time remaining 46 hours and 55 minutes
  Simulation  1.9 percent complete. Average dt  0.167 seconds
  Time remaining 46 hours and 39 minutes
  Simulation  2.0 percent complete. Average dt  0.167 seconds
  Time remaining 46 hours and 41 minutes
  Simulation  2.0 percent complete. Average dt  0.167 seconds
  Time remaining 46 hours and 21 minutes
  Simulation  2.0 percent complete. Average dt  0.167 seconds
  Time remaining 46 hours and 22 minutes
  Simulation  2.0 percent complete. Average dt  0.167 seconds
  Time remaining 46 hours and 23 minutes
  Simulation  2.0 percent complete. Average dt  0.256 seconds
  Time remaining 46 hours and 12 minutes
  Simulation  2.0 percent complete. Average dt  0.333 seconds
  Time remaining 46 hours and 37 minutes
  Simulation  2.0 percent complete. Average dt  0.333 seconds
  Time remaining 46 hours and 10 minutes
  Simulation  2.0 percent complete. Average dt  0.333 seconds
  Time remaining 45 hours and 53 minutes
  Simulation  2.0 percent complete. Average dt  0.198 seconds
  Time remaining 45 hours and 59 minutes
  Simulation  2.0 percent complete. Average dt  0.167 seconds
  Time remaining 46 hours and 15 minutes
  Simulation  2.0 percent complete. Average dt  0.167 seconds
  Time remaining 46 hours and  9 minutes
  Simulation  2.0 percent complete. Average dt  0.219 seconds
  Time remaining 45 hours and 36 minutes
  Simulation  2.0 percent complete. Average dt  0.167 seconds
  Time remaining 45 hours and 35 minutes
  Simulation  2.0 percent complete. Average dt  0.167 seconds
  Time remaining 45 hours and 48 minutes
  Simulation  2.0 percent complete. Average dt  0.167 seconds
  Time remaining 45 hours and 57 minutes
  Simulation  2.0 percent complete. Average dt  0.167 seconds
  Time remaining 45 hours and 30 minutes
  Simulation  2.0 percent complete. Average dt  0.167 seconds
  Time remaining 45 hours and 36 minutes
  Simulation  2.0 percent complete. Average dt  0.167 seconds
  Time remaining 45 hours and 24 minutes
  Simulation  2.1 percent complete. Average dt  0.167 seconds
  Time remaining 45 hours and 14 minutes
  Simulation  2.1 percent complete. Average dt  0.167 seconds
  Time remaining 45 hours and 17 minutes
  Simulation  2.1 percent complete. Average dt  0.167 seconds
  Time remaining 45 hours and  4 minutes
  Simulation  2.1 percent complete. Average dt  0.196 seconds
  Time remaining 44 hours and 58 minutes
  Simulation  2.1 percent complete. Average dt  0.244 seconds
  Time remaining 44 hours and 59 minutes
  Simulation  2.1 percent complete. Average dt  0.167 seconds
  Time remaining 44 hours and 53 minutes
  Simulation  2.1 percent complete. Average dt  0.167 seconds
  Time remaining 44 hours and 46 minutes
  Simulation  2.1 percent complete. Average dt  0.167 seconds
  Time remaining 44 hours and 56 minutes
  Simulation  2.1 percent complete. Average dt  0.167 seconds
  Time remaining 45 hours and  4 minutes
  Simulation  2.1 percent complete. Average dt  0.167 seconds
  Time remaining 44 hours and 32 minutes
  Simulation  2.1 percent complete. Average dt  0.167 seconds
  Time remaining 44 hours and 30 minutes
  Simulation  2.1 percent complete. Average dt  0.167 seconds
  Time remaining 44 hours and 56 minutes
  Simulation  2.1 percent complete. Average dt  0.167 seconds
  Time remaining 44 hours and 29 minutes
  Simulation  2.1 percent complete. Average dt  0.167 seconds
  Time remaining 44 hours and 41 minutes
  Simulation  2.1 percent complete. Average dt  0.167 seconds
  Time remaining 44 hours and 25 minutes
  Simulation  2.1 percent complete. Average dt  0.167 seconds
  Time remaining 44 hours and 37 minutes
  Simulation  2.1 percent complete. Average dt  0.167 seconds
  Time remaining 44 hours and 10 minutes
  Simulation  2.1 percent complete. Average dt  0.206 seconds
  Time remaining 44 hours and 15 minutes
  Simulation  2.1 percent complete. Average dt  0.167 seconds
  Time remaining 44 hours and 30 minutes
  Simulation  2.2 percent complete. Average dt  0.167 seconds
  Time remaining 44 hours and 10 minutes
  Simulation  2.2 percent complete. Average dt  0.167 seconds
  Time remaining 43 hours and 53 minutes
  Simulation  2.2 percent complete. Average dt  0.167 seconds
  Time remaining 43 hours and 49 minutes
  Simulation  2.2 percent complete. Average dt  0.167 seconds
  Time remaining 44 hours and  5 minutes
  Simulation  2.2 percent complete. Average dt  0.167 seconds
  Time remaining 44 hours and  4 minutes
  Simulation  2.2 percent complete. Average dt  0.167 seconds
  Time remaining 43 hours and 39 minutes
  Simulation  2.2 percent complete. Average dt  0.167 seconds
  Time remaining 43 hours and 50 minutes
  Simulation  2.2 percent complete. Average dt  0.167 seconds
  Time remaining 43 hours and 47 minutes
  Simulation  2.2 percent complete. Average dt  0.167 seconds
  Time remaining 43 hours and 34 minutes
  Simulation  2.2 percent complete. Average dt  0.167 seconds
  Time remaining 43 hours and 30 minutes
  Simulation  2.2 percent complete. Average dt  0.206 seconds
  Time remaining 43 hours and 25 minutes
  Simulation  2.2 percent complete. Average dt  0.202 seconds
  Time remaining 43 hours and 25 minutes
  Simulation  2.2 percent complete. Average dt  0.167 seconds
  Time remaining 43 hours and 19 minutes
  Simulation  2.2 percent complete. Average dt  0.167 seconds
  Time remaining 43 hours and 18 minutes
  Simulation  2.2 percent complete. Average dt  0.167 seconds
  Time remaining 43 hours and 24 minutes
  Simulation  2.2 percent complete. Average dt  0.167 seconds
  Time remaining 43 hours and 31 minutes
  Simulation  2.2 percent complete. Average dt  0.167 seconds
  Time remaining 43 hours and 24 minutes
  Simulation  2.2 percent complete. Average dt  0.167 seconds
  Time remaining 43 hours and 19 minutes
  Simulation  2.2 percent complete. Average dt  0.167 seconds
  Time remaining 43 hours and  5 minutes
  Simulation  2.2 percent complete. Average dt  0.167 seconds
  Time remaining 43 hours and 15 minutes
  Simulation  2.3 percent complete. Average dt  0.167 seconds
[...]
  Simulation 87.8 percent complete. Average dt  0.165 seconds
  Time remaining  2 hours and  5 minutes
  Simulation 87.8 percent complete. Average dt  0.116 seconds
  Time remaining  2 hours and  4 minutes
  Simulation 87.8 percent complete. Average dt  0.167 seconds
  Time remaining  2 hours and  4 minutes
  Simulation 87.8 percent complete. Average dt  0.167 seconds
  Time remaining  2 hours and  5 minutes
  Simulation 87.8 percent complete. Average dt  0.167 seconds
  Time remaining  2 hours and  4 minutes
  Simulation 87.8 percent complete. Average dt  0.167 seconds
  Time remaining  2 hours and  5 minutes
  Simulation 87.8 percent complete. Average dt  0.167 seconds
  Time remaining  2 hours and  5 minutes
  Simulation 87.8 percent complete. Average dt  0.167 seconds
  Time remaining  2 hours and  4 minutes
  Simulation 87.8 percent complete. Average dt  0.167 seconds
  Time remaining  2 hours and  5 minutes
  Simulation 87.9 percent complete. Average dt  0.167 seconds
  Time remaining  2 hours and  3 minutes
  Simulation 87.9 percent complete. Average dt  0.167 seconds
  Time remaining  2 hours and  5 minutes
  Simulation 87.9 percent complete. Average dt  0.167 seconds
  Time remaining  2 hours and  4 minutes
  Simulation 87.9 percent complete. Average dt  0.167 seconds
  Time remaining  2 hours and  3 minutes
  Simulation 87.9 percent complete. Average dt  0.167 seconds
  Time remaining  2 hours and  4 minutes
  Simulation 87.9 percent complete. Average dt  0.167 seconds
  Time remaining  2 hours and  4 minutes
  Simulation 87.9 percent complete. Average dt  0.167 seconds
  Time remaining  2 hours and  5 minutes
  Simulation 87.9 percent complete. Average dt  0.167 seconds
  Time remaining  2 hours and  6 minutes
  Simulation 87.9 percent complete. Average dt  0.167 seconds
  Time remaining  2 hours and  4 minutes
  Simulation 87.9 percent complete. Average dt  0.167 seconds
  Time remaining  2 hours and  4 minutes
  Simulation 87.9 percent complete. Average dt  0.167 seconds
  Time remaining  2 hours and  3 minutes
  Simulation 88.0 percent complete. Average dt  0.167 seconds
  Time remaining  2 hours and  1 minutes
  Simulation 88.0 percent complete. Average dt  0.167 seconds
  Time remaining  2 hours and  3 minutes
  Simulation 88.0 percent complete. Average dt  0.167 seconds
  Time remaining  2 hours and  4 minutes
  Simulation 88.0 percent complete. Average dt  0.167 seconds
  Time remaining  2 hours and  2 minutes
  Simulation 88.0 percent complete. Average dt  0.167 seconds
  Time remaining  2 hours and  2 minutes
  Simulation 88.0 percent complete. Average dt  0.167 seconds
  Time remaining  2 hours and  3 minutes
  Simulation 88.0 percent complete. Average dt  0.167 seconds
  Time remaining  2 hours and  3 minutes
  Simulation 88.0 percent complete. Average dt  0.167 seconds
  Time remaining  2 hours and  2 minutes
  Simulation 88.0 percent complete. Average dt  0.167 seconds
  Time remaining  2 hours and  2 minutes
  Simulation 88.0 percent complete. Average dt  0.167 seconds
  Time remaining  2 hours and  2 minutes
  Simulation 88.0 percent complete. Average dt  0.167 seconds
  Time remaining  2 hours and  4 minutes
  Simulation 88.0 percent complete. Average dt  0.167 seconds
  Time remaining  2 hours and  5 minutes
  Simulation 88.1 percent complete. Average dt  0.167 seconds
  Time remaining  2 hours and  3 minutes
  Simulation 88.1 percent complete. Average dt  0.167 seconds
  Time remaining  2 hours and  2 minutes
  Simulation 88.1 percent complete. Average dt  0.167 seconds
  Time remaining  2 hours and  4 minutes
  Simulation 88.1 percent complete. Average dt  0.167 seconds
  Time remaining  2 hours and  2 minutes
  Simulation 88.1 percent complete. Average dt  0.167 seconds
  Time remaining  2 hours and  3 minutes
  Simulation 88.1 percent complete. Average dt  0.167 seconds
  Time remaining  2 hours and  2 minutes
  Simulation 88.1 percent complete. Average dt  0.167 seconds
  Time remaining  2 hours and  2 minutes
  Simulation 88.1 percent complete. Average dt  0.167 seconds
  Time remaining  2 hours and  1 minutes
  Simulation 88.1 percent complete. Average dt  0.167 seconds
  Time remaining  2 hours and  3 minutes
  Simulation 88.1 percent complete. Average dt  0.167 seconds
  Time remaining  2 hours and  2 minutes
  Simulation 88.1 percent complete. Average dt  0.167 seconds
  Time remaining  2 hours and  2 minutes
  Simulation 88.2 percent complete. Average dt  0.167 seconds
  Time remaining  2 hours and  1 minutes
  Simulation 88.2 percent complete. Average dt  0.167 seconds
  Time remaining  2 hours and  1 minutes
  Simulation 88.2 percent complete. Average dt  0.167 seconds
  Time remaining  2 hours and  2 minutes
  Simulation 88.2 percent complete. Average dt  0.167 seconds
  Time remaining  2 hours and  1 minutes
  Simulation 88.2 percent complete. Average dt  0.167 seconds
  Time remaining  2 hours and  3 minutes
  Simulation 88.2 percent complete. Average dt  0.167 seconds
  Time remaining  2 hours and  0 minutes
  Simulation 88.2 percent complete. Average dt  0.167 seconds
  Time remaining  1 hours and 60 minutes
  Simulation 88.2 percent complete. Average dt  0.167 seconds
  Time remaining  2 hours and  1 minutes
  Simulation 88.2 percent complete. Average dt  0.167 seconds
  Time remaining  2 hours and  1 minutes
  Simulation 88.2 percent complete. Average dt  0.167 seconds
  Time remaining  1 hours and 60 minutes
  Simulation 88.2 percent complete. Average dt  0.167 seconds
  Time remaining  1 hours and 60 minutes
  Simulation 88.2 percent complete. Average dt  0.167 seconds
  Time remaining  2 hours and  3 minutes
  Simulation 88.3 percent complete. Average dt  0.167 seconds
  Time remaining  1 hours and 60 minutes
  Simulation 88.3 percent complete. Average dt  0.167 seconds
  Time remaining  1 hours and 59 minutes
  Simulation 88.3 percent complete. Average dt  0.167 seconds
  Time remaining  2 hours and  0 minutes
  Simulation 88.3 percent complete. Average dt  0.167 seconds
  Time remaining  2 hours and  0 minutes
  Simulation 88.3 percent complete. Average dt  0.167 seconds
  Time remaining  1 hours and 60 minutes
  Simulation 88.3 percent complete. Average dt  0.167 seconds
  Time remaining  1 hours and 60 minutes
  Simulation 88.3 percent complete. Average dt  0.167 seconds
  Time remaining  2 hours and  0 minutes
  Simulation 88.3 percent complete. Average dt  0.167 seconds
  Time remaining  1 hours and 59 minutes
  Simulation 88.3 percent complete. Average dt  0.167 seconds
  Time remaining  2 hours and  1 minutes
  Simulation 88.3 percent complete. Average dt  0.167 seconds
  Time remaining  2 hours and  0 minutes
  Simulation 88.3 percent complete. Average dt  0.167 seconds
  Time remaining  1 hours and 59 minutes
  Simulation 88.4 percent complete. Average dt  0.167 seconds
  Time remaining  1 hours and 59 minutes
  Simulation 88.4 percent complete. Average dt  0.167 seconds
  Time remaining  1 hours and 58 minutes
  Simulation 88.4 percent complete. Average dt  0.167 seconds
  Time remaining  1 hours and 58 minutes
  Simulation 88.4 percent complete. Average dt  0.167 seconds
  Time remaining  1 hours and 59 minutes
  Simulation 88.4 percent complete. Average dt  0.167 seconds
  Time remaining  1 hours and 59 minutes
  Simulation 88.4 percent complete. Average dt  0.167 seconds
  Time remaining  1 hours and 59 minutes
  Simulation 88.4 percent complete. Average dt  0.125 seconds
  Time remaining  1 hours and 59 minutes
  Simulation 88.4 percent complete. Average dt  0.111 seconds
  Time remaining  1 hours and 58 minutes
  Simulation 88.4 percent complete. Average dt  0.111 seconds
  Time remaining  1 hours and 58 minutes
  Simulation 88.4 percent complete. Average dt  0.128 seconds
  Time remaining  1 hours and 60 minutes
  Simulation 88.4 percent complete. Average dt  0.165 seconds
  Time remaining  1 hours and 58 minutes
  Simulation 88.4 percent complete. Average dt  0.111 seconds
  Time remaining  1 hours and 60 minutes
  Simulation 88.4 percent complete. Average dt  0.111 seconds
  Time remaining  1 hours and 58 minutes
  Simulation 88.5 percent complete. Average dt  0.111 seconds
  Time remaining  1 hours and 58 minutes
  Simulation 88.5 percent complete. Average dt  0.158 seconds
  Time remaining  1 hours and 58 minutes
  Simulation 88.5 percent complete. Average dt  0.167 seconds
  Time remaining  1 hours and 58 minutes
  Simulation 88.5 percent complete. Average dt  0.167 seconds
  Time remaining  1 hours and 57 minutes
  Simulation 88.5 percent complete. Average dt  0.167 seconds
  Time remaining  1 hours and 58 minutes
  Simulation 88.5 percent complete. Average dt  0.167 seconds
  Time remaining  1 hours and 57 minutes
  Simulation 88.5 percent complete. Average dt  0.167 seconds
  Time remaining  1 hours and 58 minutes
  Simulation 88.5 percent complete. Average dt  0.167 seconds
  Time remaining  1 hours and 58 minutes
  Simulation 88.5 percent complete. Average dt  0.167 seconds
  Time remaining  1 hours and 57 minutes
  Simulation 88.5 percent complete. Average dt  0.167 seconds
  Time remaining  1 hours and 56 minutes
  Simulation 88.5 percent complete. Average dt  0.167 seconds
  Time remaining  1 hours and 57 minutes
  Simulation 88.5 percent complete. Average dt  0.151 seconds
  Time remaining  1 hours and 56 minutes
  Simulation 88.6 percent complete. Average dt  0.111 seconds
  Time remaining  1 hours and 57 minutes
  Simulation 88.6 percent complete. Average dt  0.129 seconds
  Time remaining  1 hours and 57 minutes
  Simulation 88.6 percent complete. Average dt  0.167 seconds
  Time remaining  1 hours and 56 minutes
  Simulation 88.6 percent complete. Average dt  0.167 seconds
  Time remaining  1 hours and 58 minutes
  Simulation 88.6 percent complete. Average dt  0.167 seconds
  Time remaining  1 hours and 57 minutes
  Simulation 88.6 percent complete. Average dt  0.128 seconds
  Time remaining  1 hours and 56 minutes
  Simulation 88.6 percent complete. Average dt  0.111 seconds
  Time remaining  1 hours and 56 minutes
  Simulation 88.6 percent complete. Average dt  0.119 seconds
  Time remaining  1 hours and 56 minutes
  Simulation 88.6 percent complete. Average dt  0.167 seconds
  Time remaining  1 hours and 56 minutes
  Simulation 88.6 percent complete. Average dt  0.167 seconds
  Time remaining  1 hours and 58 minutes
  Simulation 88.6 percent complete. Average dt  0.167 seconds
  Time remaining  1 hours and 56 minutes
  Simulation 88.6 percent complete. Average dt  0.167 seconds
  Time remaining  1 hours and 56 minutes
  Simulation 88.7 percent complete. Average dt  0.167 seconds
  Time remaining  1 hours and 58 minutes
  Simulation 88.7 percent complete. Average dt  0.167 seconds
  Time remaining  1 hours and 56 minutes
  Simulation 88.7 percent complete. Average dt  0.167 seconds
  Time remaining  1 hours and 56 minutes
  Simulation 88.7 percent complete. Average dt  0.167 seconds
  Time remaining  1 hours and 56 minutes
  Simulation 88.7 percent complete. Average dt  0.167 seconds
  Time remaining  1 hours and 55 minutes
  Simulation 88.7 percent complete. Average dt  0.167 seconds
  Time remaining  1 hours and 55 minutes
  Simulation 88.7 percent complete. Average dt  0.125 seconds
  Time remaining  1 hours and 55 minutes
  Simulation 88.7 percent complete. Average dt  0.118 seconds
  Time remaining  1 hours and 56 minutes
  Simulation 88.7 percent complete. Average dt  0.167 seconds
  Time remaining  1 hours and 57 minutes
  Simulation 88.7 percent complete. Average dt  0.167 seconds
  Time remaining  1 hours and 54 minutes
  Simulation 88.7 percent complete. Average dt  0.167 seconds
  Time remaining  1 hours and 56 minutes
  Simulation 88.7 percent complete. Average dt  0.167 seconds
  Time remaining  1 hours and 56 minutes
  Simulation 88.8 percent complete. Average dt  0.137 seconds
  Time remaining  1 hours and 56 minutes
  Simulation 88.8 percent complete. Average dt  0.111 seconds
  Time remaining  1 hours and 56 minutes
  Simulation 88.8 percent complete. Average dt  0.111 seconds
  Time remaining  1 hours and 56 minutes
  Simulation 88.8 percent complete. Average dt  0.122 seconds
  Time remaining  1 hours and 54 minutes
  Simulation 88.8 percent complete. Average dt  0.167 seconds
  Time remaining  1 hours and 55 minutes
  Simulation 88.8 percent complete. Average dt  0.167 seconds
  Time remaining  1 hours and 54 minutes
  Simulation 88.8 percent complete. Average dt  0.159 seconds
  Time remaining  1 hours and 55 minutes
  Simulation 88.8 percent complete. Average dt  0.163 seconds
  Time remaining  1 hours and 54 minutes
  Simulation 88.8 percent complete. Average dt  0.121 seconds
  Time remaining  1 hours and 56 minutes
  Simulation 88.8 percent complete. Average dt  0.111 seconds
  Time remaining  1 hours and 54 minutes
  Simulation 88.8 percent complete. Average dt  0.111 seconds
  Time remaining  1 hours and 53 minutes
  Simulation 88.8 percent complete. Average dt  0.122 seconds
  Time remaining  1 hours and 53 minutes
  Simulation 88.9 percent complete. Average dt  0.165 seconds
  Time remaining  1 hours and 57 minutes
  Simulation 88.9 percent complete. Average dt  0.111 seconds
  Time remaining  1 hours and 53 minutes
  Simulation 88.9 percent complete. Average dt  0.111 seconds
  Time remaining  1 hours and 54 minutes
  Simulation 88.9 percent complete. Average dt  0.111 seconds
  Time remaining  1 hours and 55 minutes
  Simulation 88.9 percent complete. Average dt  0.129 seconds
  Time remaining  1 hours and 55 minutes
  Simulation 88.9 percent complete. Average dt  0.167 seconds
  Time remaining  1 hours and 54 minutes
  Simulation 88.9 percent complete. Average dt  0.167 seconds
  Time remaining  1 hours and 56 minutes
  Simulation 88.9 percent complete. Average dt  0.167 seconds
  Time remaining  1 hours and 53 minutes
  Simulation 88.9 percent complete. Average dt  0.167 seconds
  Time remaining  1 hours and 55 minutes
  Simulation 88.9 percent complete. Average dt  0.167 seconds
  Time remaining  1 hours and 55 minutes
  Simulation 88.9 percent complete. Average dt  0.167 seconds
  Time remaining  1 hours and 53 minutes
  Simulation 88.9 percent complete. Average dt  0.167 seconds
  Time remaining  1 hours and 53 minutes
  Simulation 88.9 percent complete. Average dt  0.167 seconds
  Time remaining  1 hours and 55 minutes
  Simulation 89.0 percent complete. Average dt  0.167 seconds
  Time remaining  1 hours and 52 minutes
  Simulation 89.0 percent complete. Average dt  0.167 seconds
  Time remaining  1 hours and 53 minutes
  Simulation 89.0 percent complete. Average dt  0.167 seconds
  Time remaining  1 hours and 53 minutes
  Simulation 89.0 percent complete. Average dt  0.167 seconds
  Time remaining  1 hours and 52 minutes
  Simulation 89.0 percent complete. Average dt  0.167 seconds
  Time remaining  1 hours and 53 minutes
  Simulation 89.0 percent complete. Average dt  0.167 seconds
  Time remaining  1 hours and 54 minutes
  Simulation 89.0 percent complete. Average dt  0.167 seconds
  Time remaining  1 hours and 53 minutes
  Simulation 89.0 percent complete. Average dt  0.167 seconds
  Time remaining  1 hours and 53 minutes
  Simulation 89.0 percent complete. Average dt  0.167 seconds
  Time remaining  1 hours and 53 minutes
  Simulation 89.0 percent complete. Average dt  0.167 seconds
  Time remaining  1 hours and 52 minutes
  Simulation 89.0 percent complete. Average dt  0.167 seconds
  Time remaining  1 hours and 51 minutes
  Simulation 89.1 percent complete. Average dt  0.167 seconds
  Time remaining  1 hours and 53 minutes
  Simulation 89.1 percent complete. Average dt  0.167 seconds
  Time remaining  1 hours and 51 minutes
  Simulation 89.1 percent complete. Average dt  0.167 seconds
  Time remaining  1 hours and 53 minutes
  Simulation 89.1 percent complete. Average dt  0.130 seconds
  Time remaining  1 hours and 51 minutes
  Simulation 89.1 percent complete. Average dt  0.127 seconds
  Time remaining  1 hours and 52 minutes
  Simulation 89.1 percent complete. Average dt  0.167 seconds
  Time remaining  1 hours and 51 minutes
  Simulation 89.1 percent complete. Average dt  0.167 seconds
  Time remaining  1 hours and 51 minutes
  Simulation 89.1 percent complete. Average dt  0.167 seconds
  Time remaining  1 hours and 51 minutes
  Simulation 89.1 percent complete. Average dt  0.167 seconds
  Time remaining  1 hours and 51 minutes
  Simulation 89.1 percent complete. Average dt  0.167 seconds
  Time remaining  1 hours and 51 minutes
  Simulation 89.1 percent complete. Average dt  0.167 seconds
  Time remaining  1 hours and 52 minutes
  Simulation 89.1 percent complete. Average dt  0.167 seconds
  Time remaining  1 hours and 52 minutes
  Simulation 89.2 percent complete. Average dt  0.167 seconds
  Time remaining  1 hours and 50 minutes
  Simulation 89.2 percent complete. Average dt  0.167 seconds
  Time remaining  1 hours and 50 minutes
  Simulation 89.2 percent complete. Average dt  0.167 seconds
  Time remaining  1 hours and 52 minutes
  Simulation 89.2 percent complete. Average dt  0.167 seconds
  Time remaining  1 hours and 50 minutes
  Simulation 89.2 percent complete. Average dt  0.167 seconds
  Time remaining  1 hours and 53 minutes
  Simulation 89.2 percent complete. Average dt  0.167 seconds
  Time remaining  1 hours and 50 minutes
  Simulation 89.2 percent complete. Average dt  0.167 seconds
  Time remaining  1 hours and 51 minutes
  Simulation 89.2 percent complete. Average dt  0.167 seconds
  Time remaining  1 hours and 50 minutes
  Simulation 89.2 percent complete. Average dt  0.167 seconds
  Time remaining  1 hours and 49 minutes
  Simulation 89.2 percent complete. Average dt  0.167 seconds
  Time remaining  1 hours and 49 minutes
  Simulation 89.2 percent complete. Average dt  0.167 seconds
  Time remaining  1 hours and 49 minutes
  Simulation 89.2 percent complete. Average dt  0.167 seconds
  Time remaining  1 hours and 49 minutes
  Simulation 89.3 percent complete. Average dt  0.167 seconds
  Time remaining  1 hours and 51 minutes
  Simulation 89.3 percent complete. Average dt  0.167 seconds
  Time remaining  1 hours and 49 minutes
  Simulation 89.3 percent complete. Average dt  0.167 seconds
  Time remaining  1 hours and 49 minutes
  Simulation 89.3 percent complete. Average dt  0.167 seconds
  Time remaining  1 hours and 50 minutes
  Simulation 89.3 percent complete. Average dt  0.167 seconds
  Time remaining  1 hours and 49 minutes
  Simulation 89.3 percent complete. Average dt  0.111 seconds
  Time remaining  1 hours and 49 minutes
  Simulation 89.3 percent complete. Average dt  0.167 seconds
  Time remaining  1 hours and 50 minutes
  Simulation 89.3 percent complete. Average dt  0.167 seconds
  Time remaining  1 hours and 51 minutes
  Simulation 89.3 percent complete. Average dt  0.167 seconds
  Time remaining  1 hours and 51 minutes
  Simulation 89.3 percent complete. Average dt  0.159 seconds
  Time remaining  1 hours and 51 minutes
  Simulation 89.3 percent complete. Average dt  0.111 seconds
  Time remaining  1 hours and 50 minutes
  Simulation 89.3 percent complete. Average dt  0.111 seconds
  Time remaining  1 hours and 49 minutes
  Simulation 89.4 percent complete. Average dt  0.163 seconds
  Time remaining  1 hours and 48 minutes
  Simulation 89.4 percent complete. Average dt  0.167 seconds
  Time remaining  1 hours and 49 minutes
  Simulation 89.4 percent complete. Average dt  0.141 seconds
  Time remaining  1 hours and 49 minutes
  Simulation 89.4 percent complete. Average dt  0.111 seconds
  Time remaining  1 hours and 48 minutes
  Simulation 89.4 percent complete. Average dt  0.111 seconds
  Time remaining  1 hours and 49 minutes
  Simulation 89.4 percent complete. Average dt  0.111 seconds
  Time remaining  1 hours and 49 minutes
  Simulation 89.4 percent complete. Average dt  0.149 seconds
  Time remaining  1 hours and 48 minutes
